1_1


 36 39  0  0  0  0  0  0  0  0999 V2000
   11.5507    6.9451  -12.3027 C   0  0  0  0  0  0  0  0  0  0  0  0
   10.2799    6.5083  -12.6299 C   0  0  0  0  0  0  0  0  0  0  0  0
    9.2130    6.7694  -11.7716 C   0  0  0  0  0  0  0  0  0  0  0  0
    9.4884    7.4674  -10.6120 C   0  0  0  0  0  0  0  0  0  0  0  0
   10.7582    7.8988  -10.2944 C   0  0  0  0  0  0  0  0  0  0  0  0
   11.8193    7.6435  -11.1400 C   0  0  0  0  0  0  0  0  0  0  0  0
    7.8990    6.3667  -12.0217 N   0  0  0  0  0  0  0  0  0  0  0  0
    7.5063    5.2799  -12.5641 C   0  0  0  0  0  0  0  0  0  0  0  0
    8.3591    4.3245  -12.9904 N   0  0  0  0  0  0  0  0  0  0  0  0
    7.8841    3.1965  -13.5562 C   0  0  0  0  0  0  0  0  0  0  0  0
    6.5072    3.0528  -13.6835 C   0  0  0  0  0  0  0  0  0  0  0  0
    6.2104    1.8426  -14.2815 C   0  0  0  0  0  0  0  0  0  0  0  0
    7.4360    1.2505  -14.5165 C   0  0  0  0  0  0  0  0  0  0  0  0
    8.4226    2.0759  -14.0757 N   0  0  0  0  0  0  0  0  0  0  0  0
    9.8333    1.8069  -14.1465 C   0  0  0  0  0  0  0  0  0  0  0  0
   10.6893    2.6249  -13.7147 O   0  0  0  0  0  0  0  0  0  0  0  0
    5.6236    4.0221  -13.2517 C   0  0  0  0  0  0  0  0  0  0  0  0
    6.1561    5.1266  -12.6949 N   0  0  0  0  0  0  0  0  0  0  0  0
    5.5028    5.8897  -12.3532 H   0  0  0  0  0  0  0  0  0  0  0  0
   10.2681    0.6119  -14.7063 O   0  0  0  0  0  0  0  0  0  0  0  0
   10.2561    0.3412  -16.0960 C   0  0  0  0  0  0  0  0  0  0  0  0
   11.1661    1.3911  -16.7415 C   0  0  0  0  0  0  0  0  0  0  0  0
   10.9243    8.6167   -9.0594 N   0  0  0  0  0  0  0  0  0  0  0  0
   11.0247    9.6552   -9.0256 H   0  0  0  0  0  0  0  0  0  0  0  0
   10.9471    7.8572   -7.8754 C   0  0  0  0  0  0  0  0  0  0  0  0
   10.8222    6.6077   -7.9672 O   0  0  0  0  0  0  0  0  0  0  0  0
   11.1078    8.4430   -6.5513 C   0  0  0  0  0  0  0  0  0  0  0  0
   10.9648    9.8120   -6.4275 C   0  0  0  0  0  0  0  0  0  0  0  0
   11.1006   10.4476   -5.2116 C   0  0  0  0  0  0  0  0  0  0  0  0
   11.3874    9.6843   -4.0941 C   0  0  0  0  0  0  0  0  0  0  0  0
   11.5350    8.3044   -4.1982 C   0  0  0  0  0  0  0  0  0  0  0  0
   11.3914    7.6943   -5.4413 C   0  0  0  0  0  0  0  0  0  0  0  0
   11.8953    7.3161   -2.8142 S   0  0  0  0  0  0  0  0  0  0  0  0
   12.8226    6.1893   -3.1839 O   0  0  0  0  0  0  0  0  0  0  0  0
   10.6440    6.6895   -2.2411 O   0  0  0  0  0  0  0  0  0  0  0  0
   12.6071    8.2759   -1.4835 C   0  0  0  0  0  0  0  0  0  0  0  0
  1  2  2  0  0  0
  2  3  1  0  0  0
  3  7  1  0  0  0
  7  8  2  0  0  0
  8  9  1  0  0  0
  9 10  2  0  0  0
 10 11  1  0  0  0
 11 12  1  0  0  0
 12 13  2  0  0  0
 13 14  1  0  0  0
 14 15  1  0  0  0
 15 16  2  0  0  0
 15 20  1  0  0  0
 20 21  1  0  0  0
 21 22  1  0  0  0
 11 17  2  0  0  0
 17 18  1  0  0  0
 18 19  1  0  0  0
  3  4  2  0  0  0
  4  5  1  0  0  0
  5 23  1  0  0  0
 23 24  1  0  0  0
 23 25  1  0  0  0
 25 26  2  0  0  0
 25 27  1  0  0  0
 27 28  2  0  0  0
 28 29  1  0  0  0
 29 30  2  0  0  0
 30 31  1  0  0  0
 31 33  1  0  0  0
 33 34  2  0  0  0
 33 35  2  0  0  0
 33 36  1  0  0  0
 31 32  2  0  0  0
  5  6  2  0  0  0
  6  1  1  0  0  0
 18  8  1  0  0  0
 32 27  1  0  0  0
 14 10  1  0  0  0
M  END
> <minimizedAffinity>
-11.14636

$$$$
1_1


 36 39  0  0  0  0  0  0  0  0999 V2000
   11.2100   -0.5233  -18.1292 C   0  0  0  0  0  0  0  0  0  0  0  0
    9.9629   -1.0495  -18.4134 C   0  0  0  0  0  0  0  0  0  0  0  0
    8.8146   -0.3263  -18.0945 C   0  0  0  0  0  0  0  0  0  0  0  0
    8.9875    0.9070  -17.4973 C   0  0  0  0  0  0  0  0  0  0  0  0
   10.2345    1.4233  -17.2180 C   0  0  0  0  0  0  0  0  0  0  0  0
   11.3758    0.7122  -17.5312 C   0  0  0  0  0  0  0  0  0  0  0  0
    7.5173   -0.7797  -18.3450 N   0  0  0  0  0  0  0  0  0  0  0  0
    6.5046   -0.7125  -17.5708 C   0  0  0  0  0  0  0  0  0  0  0  0
    6.5598   -0.1631  -16.3391 N   0  0  0  0  0  0  0  0  0  0  0  0
    5.4555   -0.1210  -15.5665 C   0  0  0  0  0  0  0  0  0  0  0  0
    4.2760   -0.6543  -16.0737 C   0  0  0  0  0  0  0  0  0  0  0  0
    3.2593   -0.5220  -15.1469 C   0  0  0  0  0  0  0  0  0  0  0  0
    3.8435    0.1038  -14.0630 C   0  0  0  0  0  0  0  0  0  0  0  0
    5.1558    0.3344  -14.3343 N   0  0  0  0  0  0  0  0  0  0  0  0
    6.0951    0.9683  -13.4492 C   0  0  0  0  0  0  0  0  0  0  0  0
    7.2995    1.1471  -13.7741 O   0  0  0  0  0  0  0  0  0  0  0  0
    4.2056   -1.2192  -17.3317 C   0  0  0  0  0  0  0  0  0  0  0  0
    5.3400   -1.2329  -18.0571 N   0  0  0  0  0  0  0  0  0  0  0  0
    5.3180   -1.6603  -19.0281 H   0  0  0  0  0  0  0  0  0  0  0  0
    5.6654    1.3969  -12.1993 O   0  0  0  0  0  0  0  0  0  0  0  0
    5.6333    2.7545  -11.7987 C   0  0  0  0  0  0  0  0  0  0  0  0
    4.9697    3.5210  -12.9472 C   0  0  0  0  0  0  0  0  0  0  0  0
   10.2908    2.7178  -16.5943 N   0  0  0  0  0  0  0  0  0  0  0  0
   10.1384    3.6023  -17.1275 H   0  0  0  0  0  0  0  0  0  0  0  0
   10.5634    2.7526  -15.2146 C   0  0  0  0  0  0  0  0  0  0  0  0
   10.7399    1.6596  -14.6150 O   0  0  0  0  0  0  0  0  0  0  0  0
   10.6515    3.9874  -14.4466 C   0  0  0  0  0  0  0  0  0  0  0  0
   11.7638    4.7865  -14.6314 C   0  0  0  0  0  0  0  0  0  0  0  0
   11.9267    5.9712  -13.9453 C   0  0  0  0  0  0  0  0  0  0  0  0
   10.9444    6.3591  -13.0517 C   0  0  0  0  0  0  0  0  0  0  0  0
    9.8170    5.5682  -12.8518 C   0  0  0  0  0  0  0  0  0  0  0  0
    9.6837    4.3776  -13.5610 C   0  0  0  0  0  0  0  0  0  0  0  0
    8.5644    6.0262  -11.7369 S   0  0  0  0  0  0  0  0  0  0  0  0
    9.0549    7.0785  -10.7784 O   0  0  0  0  0  0  0  0  0  0  0  0
    8.1065    4.8491  -10.9052 O   0  0  0  0  0  0  0  0  0  0  0  0
    7.1045    6.6129  -12.5870 C   0  0  0  0  0  0  0  0  0  0  0  0
  1  2  2  0  0  0
  2  3  1  0  0  0
  3  7  1  0  0  0
  7  8  2  0  0  0
  8  9  1  0  0  0
  9 10  2  0  0  0
 10 11  1  0  0  0
 11 12  1  0  0  0
 12 13  2  0  0  0
 13 14  1  0  0  0
 14 15  1  0  0  0
 15 16  2  0  0  0
 15 20  1  0  0  0
 20 21  1  0  0  0
 21 22  1  0  0  0
 11 17  2  0  0  0
 17 18  1  0  0  0
 18 19  1  0  0  0
  3  4  2  0  0  0
  4  5  1  0  0  0
  5 23  1  0  0  0
 23 24  1  0  0  0
 23 25  1  0  0  0
 25 26  2  0  0  0
 25 27  1  0  0  0
 27 28  2  0  0  0
 28 29  1  0  0  0
 29 30  2  0  0  0
 30 31  1  0  0  0
 31 33  1  0  0  0
 33 34  2  0  0  0
 33 35  2  0  0  0
 33 36  1  0  0  0
 31 32  2  0  0  0
  5  6  2  0  0  0
  6  1  1  0  0  0
 18  8  1  0  0  0
 32 27  1  0  0  0
 14 10  1  0  0  0
M  END
> <minimizedAffinity>
-9.90324

$$$$
1_1


 36 39  0  0  0  0  0  0  0  0999 V2000
   11.1041   -0.3851  -18.2260 C   0  0  0  0  0  0  0  0  0  0  0  0
    9.9134   -0.7283  -17.6119 C   0  0  0  0  0  0  0  0  0  0  0  0
    9.3617    0.1125  -16.6466 C   0  0  0  0  0  0  0  0  0  0  0  0
   10.0504    1.2718  -16.3474 C   0  0  0  0  0  0  0  0  0  0  0  0
   11.2366    1.6056  -16.9647 C   0  0  0  0  0  0  0  0  0  0  0  0
   11.7883    0.7773  -17.9216 C   0  0  0  0  0  0  0  0  0  0  0  0
    8.1654   -0.1546  -15.9767 N   0  0  0  0  0  0  0  0  0  0  0  0
    7.5560    0.5931  -15.1406 C   0  0  0  0  0  0  0  0  0  0  0  0
    8.0156    1.8084  -14.7746 N   0  0  0  0  0  0  0  0  0  0  0  0
    7.3272    2.5530  -13.8860 C   0  0  0  0  0  0  0  0  0  0  0  0
    6.1459    2.0348  -13.3673 C   0  0  0  0  0  0  0  0  0  0  0  0
    5.5842    2.9328  -12.4795 C   0  0  0  0  0  0  0  0  0  0  0  0
    6.4480    4.0106  -12.4674 C   0  0  0  0  0  0  0  0  0  0  0  0
    7.4825    3.7633  -13.3144 N   0  0  0  0  0  0  0  0  0  0  0  0
    8.5843    4.6506  -13.5721 C   0  0  0  0  0  0  0  0  0  0  0  0
    9.5084    4.3488  -14.3740 O   0  0  0  0  0  0  0  0  0  0  0  0
    5.6645    0.7933  -13.7330 C   0  0  0  0  0  0  0  0  0  0  0  0
    6.3946    0.0956  -14.6239 N   0  0  0  0  0  0  0  0  0  0  0  0
    6.0507   -0.8621  -14.9248 H   0  0  0  0  0  0  0  0  0  0  0  0
    8.6341    5.8763  -12.9196 O   0  0  0  0  0  0  0  0  0  0  0  0
    9.8368    6.5523  -12.6013 C   0  0  0  0  0  0  0  0  0  0  0  0
    9.4416    7.7137  -11.6837 C   0  0  0  0  0  0  0  0  0  0  0  0
   11.8637    2.8386  -16.5715 N   0  0  0  0  0  0  0  0  0  0  0  0
   12.4217    2.9269  -15.6937 H   0  0  0  0  0  0  0  0  0  0  0  0
   11.6966    3.9431  -17.4267 C   0  0  0  0  0  0  0  0  0  0  0  0
   11.0150    3.7873  -18.4739 O   0  0  0  0  0  0  0  0  0  0  0  0
   12.2714    5.2552  -17.1617 C   0  0  0  0  0  0  0  0  0  0  0  0
   12.0302    5.8304  -15.9285 C   0  0  0  0  0  0  0  0  0  0  0  0
   12.5361    7.0689  -15.5953 C   0  0  0  0  0  0  0  0  0  0  0  0
   13.3036    7.7431  -16.5282 C   0  0  0  0  0  0  0  0  0  0  0  0
   13.5578    7.1806  -17.7754 C   0  0  0  0  0  0  0  0  0  0  0  0
   13.0317    5.9281  -18.0795 C   0  0  0  0  0  0  0  0  0  0  0  0
   14.5180    8.0007  -18.9701 S   0  0  0  0  0  0  0  0  0  0  0  0
   13.6741    8.9462  -19.7828 O   0  0  0  0  0  0  0  0  0  0  0  0
   15.1473    7.0250  -19.9391 O   0  0  0  0  0  0  0  0  0  0  0  0
   15.8806    8.8894  -18.2272 C   0  0  0  0  0  0  0  0  0  0  0  0
  1  2  2  0  0  0
  2  3  1  0  0  0
  3  7  1  0  0  0
  7  8  2  0  0  0
  8  9  1  0  0  0
  9 10  2  0  0  0
 10 11  1  0  0  0
 11 12  1  0  0  0
 12 13  2  0  0  0
 13 14  1  0  0  0
 14 15  1  0  0  0
 15 16  2  0  0  0
 15 20  1  0  0  0
 20 21  1  0  0  0
 21 22  1  0  0  0
 11 17  2  0  0  0
 17 18  1  0  0  0
 18 19  1  0  0  0
  3  4  2  0  0  0
  4  5  1  0  0  0
  5 23  1  0  0  0
 23 24  1  0  0  0
 23 25  1  0  0  0
 25 26  2  0  0  0
 25 27  1  0  0  0
 27 28  2  0  0  0
 28 29  1  0  0  0
 29 30  2  0  0  0
 30 31  1  0  0  0
 31 33  1  0  0  0
 33 34  2  0  0  0
 33 35  2  0  0  0
 33 36  1  0  0  0
 31 32  2  0  0  0
  5  6  2  0  0  0
  6  1  1  0  0  0
 18  8  1  0  0  0
 32 27  1  0  0  0
 14 10  1  0  0  0
M  END
> <minimizedAffinity>
-8.68126

$$$$
