6np5_ligand
     RDKit          3D

 54 56  0  0  0  0  0  0  0  0999 V2000
  112.7478  -13.5652   -6.3744 C   0  0  0  0  0  0  0  0  0  0  0  0
  112.0416  -13.9812   -7.7053 C   0  0  0  0  0  0  0  0  0  0  0  0
  110.7927  -14.8895   -7.4668 C   0  0  0  0  0  0  0  0  0  0  0  0
  111.0117  -16.0777   -6.4553 C   0  0  0  0  0  0  0  0  0  0  0  0
  112.4226  -16.0110   -5.8039 C   0  0  0  0  0  0  0  0  0  0  0  0
  112.6832  -14.6094   -5.2496 C   0  0  0  0  0  0  0  0  0  0  0  0
  112.5322  -17.0293   -4.7109 N   0  0  0  0  0  0  0  0  0  0  0  0
  112.2259  -12.2420   -5.8831 N   0  0  0  0  0  0  0  0  0  0  0  0
  110.3031  -15.4103   -8.7217 O   0  0  0  0  0  0  0  0  0  0  0  0
  111.9628  -16.8436   -3.8695 H   0  0  0  0  0  0  0  0  0  0  0  0
  112.2493  -17.9649   -5.0533 H   0  0  0  0  0  0  0  0  0  0  0  0
  113.5052  -17.1519   -4.3734 H   0  0  0  0  0  0  0  0  0  0  0  0
  112.9146  -11.7194   -5.3121 H   0  0  0  0  0  0  0  0  0  0  0  0
  112.0291  -11.6255   -6.6974 H   0  0  0  0  0  0  0  0  0  0  0  0
  111.3477  -12.2452   -5.3431 H   0  0  0  0  0  0  0  0  0  0  0  0
  110.2409  -14.6309   -9.3292 H   0  0  0  0  0  0  0  0  0  0  0  0
  110.8640  -17.3667   -7.0906 O   0  0  0  0  0  0  0  0  0  0  0  0
  109.9745  -18.2868   -6.4107 C   0  0  0  0  0  0  0  0  0  0  0  0
  110.7101  -19.6370   -6.2078 C   0  0  0  0  0  0  0  0  0  0  0  0
  109.8078  -20.6526   -5.4823 C   0  0  0  0  0  0  0  0  0  0  0  0
  108.8531  -19.9598   -4.4913 C   0  0  0  0  0  0  0  0  0  0  0  0
  109.4188  -18.5993   -4.0285 C   0  0  0  0  0  0  0  0  0  0  0  0
  109.6070  -17.6770   -5.1551 O   0  0  0  0  0  0  0  0  0  0  0  0
  110.6718  -21.5634   -4.8122 O   0  0  0  0  0  0  0  0  0  0  0  0
  107.6280  -19.6945   -5.1756 O   0  0  0  0  0  0  0  0  0  0  0  0
  111.2077  -20.2254   -7.4953 N   0  0  0  0  0  0  0  0  0  0  0  0
  110.1856  -22.3801   -4.5678 H   0  0  0  0  0  0  0  0  0  0  0  0
  107.0117  -20.4516   -5.0530 H   0  0  0  0  0  0  0  0  0  0  0  0
  111.9959  -20.8665   -7.3080 H   0  0  0  0  0  0  0  0  0  0  0  0
  110.5029  -20.7773   -8.0028 H   0  0  0  0  0  0  0  0  0  0  0  0
  111.5303  -19.4884   -8.1501 H   0  0  0  0  0  0  0  0  0  0  0  0
  108.5061  -17.9092   -2.9699 C   0  0  0  0  0  0  0  0  0  0  0  0
  108.6590  -18.4418   -1.5867 N   0  0  0  0  0  0  0  0  0  0  0  0
  109.6148  -18.3771   -1.2024 H   0  0  0  0  0  0  0  0  0  0  0  0
  108.3339  -19.4133   -1.4524 H   0  0  0  0  0  0  0  0  0  0  0  0
  108.0769  -17.8904   -0.9297 H   0  0  0  0  0  0  0  0  0  0  0  0
  111.6797  -12.7458   -8.3558 O   0  0  0  0  0  0  0  0  0  0  0  0
  110.4181  -12.1422   -7.9935 C   0  0  0  0  0  0  0  0  0  0  0  0
  109.4526  -12.3094   -9.2053 C   0  0  0  0  0  0  0  0  0  0  0  0
  108.1338  -11.5341   -9.0002 C   0  0  0  0  0  0  0  0  0  0  0  0
  108.4355  -10.0816   -8.5970 C   0  0  0  0  0  0  0  0  0  0  0  0
  109.4005  -10.0713   -7.3874 C   0  0  0  0  0  0  0  0  0  0  0  0
  107.3704  -11.5151  -10.3019 N   0  0  0  0  0  0  0  0  0  0  0  0
  110.6369  -10.7658   -7.6839 O   0  0  0  0  0  0  0  0  0  0  0  0
  110.0979  -11.8714  -10.4176 O   0  0  0  0  0  0  0  0  0  0  0  0
  109.0494   -9.4410   -9.7320 O   0  0  0  0  0  0  0  0  0  0  0  0
  107.1324  -12.4478  -10.6696 H   0  0  0  0  0  0  0  0  0  0  0  0
  106.4925  -10.9746  -10.2557 H   0  0  0  0  0  0  0  0  0  0  0  0
  107.9485  -11.0541  -11.0283 H   0  0  0  0  0  0  0  0  0  0  0  0
  110.2638  -10.9044  -10.3510 H   0  0  0  0  0  0  0  0  0  0  0  0
  108.8813   -8.4763   -9.6466 H   0  0  0  0  0  0  0  0  0  0  0  0
  109.7287   -8.6372   -6.9506 C   0  0  0  0  0  0  0  0  0  0  0  0
  109.3612   -8.4820   -5.5956 O   0  0  0  0  0  0  0  0  0  0  0  0
  109.6028   -7.5851   -5.2892 H   0  0  0  0  0  0  0  0  0  0  0  0
 18 19  1  0  0  0
 18 23  1  0  0  0
 17 18  1  0  0  0
 19 20  1  0  0  0
 19 26  1  0  0  0
 20 21  1  0  0  0
 20 24  1  0  0  0
 22 21  1  0  0  0
 21 25  1  0  0  0
 22 32  1  0  0  0
 23 22  1  0  0  0
 32 33  1  0  0  0
  2  1  1  0  0  0
  1  6  1  0  0  0
  1  8  1  0  0  0
  2  3  1  0  0  0
 37  2  1  0  0  0
  3  4  1  0  0  0
  3  9  1  0  0  0
  4  5  1  0  0  0
  4 17  1  0  0  0
  6  5  1  0  0  0
  5  7  1  0  0  0
 38 39  1  0  0  0
 38 37  1  0  0  0
 38 44  1  0  0  0
 39 40  1  0  0  0
 39 45  1  0  0  0
 40 41  1  0  0  0
 40 43  1  0  0  0
 41 42  1  0  0  0
 41 46  1  0  0  0
 42 52  1  0  0  0
 42 44  1  0  0  0
 52 53  1  0  0  0
 33 34  1  0  0  0
 33 35  1  0  0  0
 33 36  1  0  0  0
  7 10  1  0  0  0
  7 11  1  0  0  0
  7 12  1  0  0  0
  8 13  1  0  0  0
  8 14  1  0  0  0
  8 15  1  0  0  0
 43 47  1  0  0  0
 43 48  1  0  0  0
 43 49  1  0  0  0
 24 27  1  0  0  0
 25 28  1  0  0  0
  9 16  1  0  0  0
 45 50  1  0  0  0
 46 51  1  0  0  0
 53 54  1  0  0  0
 26 29  1  0  0  0
 26 30  1  0  0  0
 26 31  1  0  0  0
M  CHG 1   7   1
M  CHG 1   8   1
M  CHG 1  26   1
M  CHG 1  33   1
M  CHG 1  43   1
M  END
> <minimizedAffinity>
-10.17079

$$$$
