6np5_ligand


 54 56  0  0  0  0  0  0  0  0999 V2000
  106.9227  -16.1865   -8.6098 C   0  0  0  0  0  0  0  0  0  0  0  0
  108.4285  -16.4196   -8.7399 C   0  0  0  0  0  0  0  0  0  0  0  0
  109.2082  -15.2353   -8.1555 C   0  0  0  0  0  0  0  0  0  0  0  0
  108.7865  -13.8889   -8.7789 C   0  0  0  0  0  0  0  0  0  0  0  0
  107.2632  -13.7144   -8.7969 C   0  0  0  0  0  0  0  0  0  0  0  0
  106.5341  -14.9244   -9.3800 C   0  0  0  0  0  0  0  0  0  0  0  0
  106.9490  -12.5027   -9.5661 N   0  0  0  0  0  0  0  0  0  0  0  0
  106.1830  -17.3354   -9.1279 N   0  0  0  0  0  0  0  0  0  0  0  0
  110.5868  -15.4478   -8.3967 O   0  0  0  0  0  0  0  0  0  0  0  0
  105.9381  -12.3690   -9.5896 H   0  0  0  0  0  0  0  0  0  0  0  0
  107.3897  -11.6964   -9.1231 H   0  0  0  0  0  0  0  0  0  0  0  0
  107.3020  -12.6044  -10.5176 H   0  0  0  0  0  0  0  0  0  0  0  0
  105.1819  -17.1643   -9.0340 H   0  0  0  0  0  0  0  0  0  0  0  0
  106.4150  -17.4720  -10.1118 H   0  0  0  0  0  0  0  0  0  0  0  0
  106.4378  -18.1691   -8.5984 H   0  0  0  0  0  0  0  0  0  0  0  0
  111.0904  -14.7141   -8.0365 H   0  0  0  0  0  0  0  0  0  0  0  0
  109.2567  -12.7360   -8.0896 O   0  0  0  0  0  0  0  0  0  0  0  0
  110.2929  -12.0015   -8.6417 C   0  0  0  0  0  0  0  0  0  0  0  0
  111.3020  -11.6760   -7.5521 C   0  0  0  0  0  0  0  0  0  0  0  0
  110.6875  -10.9176   -6.4378 C   0  0  0  0  0  0  0  0  0  0  0  0
  110.0682   -9.6407   -6.9339 C   0  0  0  0  0  0  0  0  0  0  0  0
  109.1427   -9.9169   -8.1308 C   0  0  0  0  0  0  0  0  0  0  0  0
  109.8191  -10.7052   -9.1521 O   0  0  0  0  0  0  0  0  0  0  0  0
  111.7295  -10.6402   -5.4427 O   0  0  0  0  0  0  0  0  0  0  0  0
  109.2837   -8.9728   -5.9360 O   0  0  0  0  0  0  0  0  0  0  0  0
  111.8696  -12.9763   -7.0606 N   0  0  0  0  0  0  0  0  0  0  0  0
  112.1103  -11.4679   -5.1404 H   0  0  0  0  0  0  0  0  0  0  0  0
  109.8332   -8.7847   -5.1716 H   0  0  0  0  0  0  0  0  0  0  0  0
  112.2867  -13.4811   -7.8427 H   0  0  0  0  0  0  0  0  0  0  0  0
  112.5828  -12.7898   -6.3556 H   0  0  0  0  0  0  0  0  0  0  0  0
  111.1235  -13.5383   -6.6508 H   0  0  0  0  0  0  0  0  0  0  0  0
  108.7183   -8.6432   -8.8080 C   0  0  0  0  0  0  0  0  0  0  0  0
  109.8990   -7.9508   -9.3060 N   0  0  0  0  0  0  0  0  0  0  0  0
  109.6156   -7.0859   -9.7663 H   0  0  0  0  0  0  0  0  0  0  0  0
  110.5193   -7.7346   -8.5257 H   0  0  0  0  0  0  0  0  0  0  0  0
  110.3862   -8.5488   -9.9735 H   0  0  0  0  0  0  0  0  0  0  0  0
  108.7838  -17.5708   -8.0047 O   0  0  0  0  0  0  0  0  0  0  0  0
  109.0862  -17.3892   -6.6561 C   0  0  0  0  0  0  0  0  0  0  0  0
  110.1978  -18.3725   -6.3075 C   0  0  0  0  0  0  0  0  0  0  0  0
  109.7406  -19.7899   -6.4996 C   0  0  0  0  0  0  0  0  0  0  0  0
  108.5260  -20.0237   -5.6673 C   0  0  0  0  0  0  0  0  0  0  0  0
  107.4190  -19.0359   -6.0262 C   0  0  0  0  0  0  0  0  0  0  0  0
  110.8254  -20.7633   -6.1197 N   0  0  0  0  0  0  0  0  0  0  0  0
  107.9183  -17.6523   -5.8287 O   0  0  0  0  0  0  0  0  0  0  0  0
  111.2707  -18.0848   -7.1755 O   0  0  0  0  0  0  0  0  0  0  0  0
  108.0008  -21.3458   -5.8796 O   0  0  0  0  0  0  0  0  0  0  0  0
  110.4895  -21.7163   -6.2593 H   0  0  0  0  0  0  0  0  0  0  0  0
  111.6456  -20.6016   -6.7041 H   0  0  0  0  0  0  0  0  0  0  0  0
  111.0730  -20.6291   -5.1394 H   0  0  0  0  0  0  0  0  0  0  0  0
  111.9987  -18.6830   -6.9918 H   0  0  0  0  0  0  0  0  0  0  0  0
  107.2211  -21.4707   -5.3335 H   0  0  0  0  0  0  0  0  0  0  0  0
  106.1614  -19.2145   -5.2526 C   0  0  0  0  0  0  0  0  0  0  0  0
  106.3908  -19.9486   -4.1093 O   0  0  0  0  0  0  0  0  0  0  0  0
  105.5678  -20.0517   -3.6260 H   0  0  0  0  0  0  0  0  0  0  0  0
 18 19  1  0  0  0
 18 23  1  0  0  0
 17 18  1  0  0  0
 19 20  1  0  0  0
 19 26  1  0  0  0
 20 21  1  0  0  0
 20 24  1  0  0  0
 22 21  1  0  0  0
 21 25  1  0  0  0
 22 32  1  0  0  0
 23 22  1  0  0  0
 32 33  1  0  0  0
  2  1  1  0  0  0
  1  6  1  0  0  0
  1  8  1  0  0  0
  2  3  1  0  0  0
 37  2  1  0  0  0
  3  4  1  0  0  0
  3  9  1  0  0  0
  4  5  1  0  0  0
  4 17  1  0  0  0
  6  5  1  0  0  0
  5  7  1  0  0  0
 38 39  1  0  0  0
 38 37  1  0  0  0
 38 44  1  0  0  0
 39 40  1  0  0  0
 39 45  1  0  0  0
 40 41  1  0  0  0
 40 43  1  0  0  0
 41 42  1  0  0  0
 41 46  1  0  0  0
 42 52  1  0  0  0
 42 44  1  0  0  0
 52 53  1  0  0  0
 33 34  1  0  0  0
 33 35  1  0  0  0
 33 36  1  0  0  0
  7 10  1  0  0  0
  7 11  1  0  0  0
  7 12  1  0  0  0
  8 13  1  0  0  0
  8 14  1  0  0  0
  8 15  1  0  0  0
 43 47  1  0  0  0
 43 48  1  0  0  0
 43 49  1  0  0  0
 24 27  1  0  0  0
 25 28  1  0  0  0
  9 16  1  0  0  0
 45 50  1  0  0  0
 46 51  1  0  0  0
 53 54  1  0  0  0
 26 29  1  0  0  0
 26 30  1  0  0  0
 26 31  1  0  0  0
M  CHG 1   7   1
M  CHG 1   8   1
M  CHG 1  26   1
M  CHG 1  33   1
M  CHG 1  43   1
M  END
> <minimizedAffinity>
-9.39903

$$$$
