19_0


 22 25  0  0  0  0  0  0  0  0999 V2000
    6.4302    2.5152  -13.4354 C   0  0  0  0  0  0  0  0  0  0  0  0
    5.7748    3.4543  -12.6221 C   0  0  0  0  0  0  0  0  0  0  0  0
    6.6213    4.4924  -12.3184 C   0  0  0  0  0  0  0  0  0  0  0  0
    6.2648    5.5777  -11.5355 O   0  0  0  0  0  0  0  0  0  0  0  0
    7.8098    4.1890  -12.9491 C   0  0  0  0  0  0  0  0  0  0  0  0
    7.6664    3.0166  -13.5991 N   0  0  0  0  0  0  0  0  0  0  0  0
    8.6725    2.3575  -14.3493 C   0  0  0  0  0  0  0  0  0  0  0  0
    8.5348    1.0062  -14.1788 N   0  0  0  0  0  0  0  0  0  0  0  0
    9.4164    0.1739  -14.8077 C   0  0  0  0  0  0  0  0  0  0  0  0
   10.4292    0.6674  -15.6016 C   0  0  0  0  0  0  0  0  0  0  0  0
   10.5713    2.0143  -15.7756 N   0  0  0  0  0  0  0  0  0  0  0  0
    9.6958    2.8301  -15.1494 C   0  0  0  0  0  0  0  0  0  0  0  0
   10.0265    4.5725  -15.4407 S   0  0  0  0  0  0  0  0  0  0  0  0
    9.9246    5.3563  -13.8287 C   0  0  0  0  0  0  0  0  0  0  0  0
   10.9375    6.2618  -13.5908 C   0  0  0  0  0  0  0  0  0  0  0  0
   10.9688    6.9072  -12.3554 C   0  0  0  0  0  0  0  0  0  0  0  0
   10.0048    6.6485  -11.3816 C   0  0  0  0  0  0  0  0  0  0  0  0
    8.9756    5.7299  -11.6206 C   0  0  0  0  0  0  0  0  0  0  0  0
    8.9599    5.1029  -12.8473 C   0  0  0  0  0  0  0  0  0  0  0  0
    5.5345    0.9934  -15.0997 O   0  0  0  0  0  0  0  0  0  0  0  0
    5.8047    1.3139  -13.9296 C   0  0  0  0  0  0  0  0  0  0  0  0
    5.4386    0.3489  -12.9765 O   0  0  0  0  0  0  0  0  0  0  0  0
 20 21  2  0  0  0
 21 22  1  0  0  0
 21  1  1  0  0  0
  1  2  2  0  0  0
  2  3  1  0  0  0
  3  4  1  0  0  0
  3  5  2  0  0  0
  5  6  1  0  0  0
  6  7  1  0  0  0
  7  8  2  0  0  0
  8  9  1  0  0  0
  9 10  2  0  0  0
 10 11  1  0  0  0
 11 12  2  0  0  0
 12 13  1  0  0  0
 13 14  1  0  0  0
 14 15  2  0  0  0
 15 16  1  0  0  0
 16 17  2  0  0  0
 17 18  1  0  0  0
 18 19  2  0  0  0
  6  1  1  0  0  0
 12  7  1  0  0  0
 19 14  1  0  0  0
 19  5  1  0  0  0
M  CHG 1   4  -1
M  CHG 1  22  -1
M  END
> <minimizedAffinity>
-8.62209

$$$$
19_0


 22 25  0  0  0  0  0  0  0  0999 V2000
    9.0038    1.8129  -14.8822 C   0  0  0  0  0  0  0  0  0  0  0  0
   10.1813    1.6405  -15.6284 C   0  0  0  0  0  0  0  0  0  0  0  0
   10.9712    2.7602  -15.5346 C   0  0  0  0  0  0  0  0  0  0  0  0
   12.2008    2.8939  -16.1577 O   0  0  0  0  0  0  0  0  0  0  0  0
   10.2729    3.6311  -14.7247 C   0  0  0  0  0  0  0  0  0  0  0  0
    9.1162    3.0446  -14.3562 N   0  0  0  0  0  0  0  0  0  0  0  0
    8.1154    3.6284  -13.5396 C   0  0  0  0  0  0  0  0  0  0  0  0
    6.8878    3.2213  -13.9886 N   0  0  0  0  0  0  0  0  0  0  0  0
    5.7718    3.6794  -13.3484 C   0  0  0  0  0  0  0  0  0  0  0  0
    5.8613    4.5338  -12.2707 C   0  0  0  0  0  0  0  0  0  0  0  0
    7.0829    4.9432  -11.8183 N   0  0  0  0  0  0  0  0  0  0  0  0
    8.1813    4.4861  -12.4577 C   0  0  0  0  0  0  0  0  0  0  0  0
    9.7125    5.1353  -11.7764 S   0  0  0  0  0  0  0  0  0  0  0  0
   10.6862    5.6539  -13.1928 C   0  0  0  0  0  0  0  0  0  0  0  0
   11.2952    6.8798  -13.0242 C   0  0  0  0  0  0  0  0  0  0  0  0
   12.0535    7.3902  -14.0771 C   0  0  0  0  0  0  0  0  0  0  0  0
   12.1961    6.6851  -15.2715 C   0  0  0  0  0  0  0  0  0  0  0  0
   11.5790    5.4404  -15.4452 C   0  0  0  0  0  0  0  0  0  0  0  0
   10.8349    4.9513  -14.3938 C   0  0  0  0  0  0  0  0  0  0  0  0
    7.0900    0.5018  -15.5936 O   0  0  0  0  0  0  0  0  0  0  0  0
    7.9733    0.8103  -14.7755 C   0  0  0  0  0  0  0  0  0  0  0  0
    7.9382    0.0578  -13.5896 O   0  0  0  0  0  0  0  0  0  0  0  0
 20 21  2  0  0  0
 21 22  1  0  0  0
 21  1  1  0  0  0
  1  2  2  0  0  0
  2  3  1  0  0  0
  3  4  1  0  0  0
  3  5  2  0  0  0
  5  6  1  0  0  0
  6  7  1  0  0  0
  7  8  2  0  0  0
  8  9  1  0  0  0
  9 10  2  0  0  0
 10 11  1  0  0  0
 11 12  2  0  0  0
 12 13  1  0  0  0
 13 14  1  0  0  0
 14 15  2  0  0  0
 15 16  1  0  0  0
 16 17  2  0  0  0
 17 18  1  0  0  0
 18 19  2  0  0  0
  6  1  1  0  0  0
 12  7  1  0  0  0
 19 14  1  0  0  0
 19  5  1  0  0  0
M  CHG 1   4  -1
M  CHG 1  22  -1
M  END
> <minimizedAffinity>
-7.28146

$$$$
19_0


 22 25  0  0  0  0  0  0  0  0999 V2000
    7.7469    4.0957  -13.7002 C   0  0  0  0  0  0  0  0  0  0  0  0
    8.8451    4.9393  -13.9355 C   0  0  0  0  0  0  0  0  0  0  0  0
    9.6609    4.3990  -14.8994 C   0  0  0  0  0  0  0  0  0  0  0  0
   10.8239    4.9983  -15.3533 O   0  0  0  0  0  0  0  0  0  0  0  0
    9.0606    3.2107  -15.2597 C   0  0  0  0  0  0  0  0  0  0  0  0
    7.9341    3.0590  -14.5349 N   0  0  0  0  0  0  0  0  0  0  0  0
    7.0493    1.9535  -14.6014 C   0  0  0  0  0  0  0  0  0  0  0  0
    6.5659    1.7001  -13.3460 N   0  0  0  0  0  0  0  0  0  0  0  0
    5.6983    0.6589  -13.1765 C   0  0  0  0  0  0  0  0  0  0  0  0
    5.3068   -0.1301  -14.2365 C   0  0  0  0  0  0  0  0  0  0  0  0
    5.7855    0.1180  -15.4911 N   0  0  0  0  0  0  0  0  0  0  0  0
    6.6436    1.1490  -15.6496 C   0  0  0  0  0  0  0  0  0  0  0  0
    7.2163    1.3329  -17.3433 S   0  0  0  0  0  0  0  0  0  0  0  0
    8.9938    1.5573  -17.2271 C   0  0  0  0  0  0  0  0  0  0  0  0
    9.7039    0.8243  -18.1549 C   0  0  0  0  0  0  0  0  0  0  0  0
   11.0957    0.9038  -18.1333 C   0  0  0  0  0  0  0  0  0  0  0  0
   11.7583    1.7011  -17.2008 C   0  0  0  0  0  0  0  0  0  0  0  0
   11.0399    2.4462  -16.2579 C   0  0  0  0  0  0  0  0  0  0  0  0
    9.6655    2.3562  -16.2952 C   0  0  0  0  0  0  0  0  0  0  0  0
    5.5040    4.6366  -12.9485 O   0  0  0  0  0  0  0  0  0  0  0  0
    6.7054    4.3894  -12.7475 C   0  0  0  0  0  0  0  0  0  0  0  0
    7.0700    4.4040  -11.3908 O   0  0  0  0  0  0  0  0  0  0  0  0
 20 21  2  0  0  0
 21 22  1  0  0  0
 21  1  1  0  0  0
  1  2  2  0  0  0
  2  3  1  0  0  0
  3  4  1  0  0  0
  3  5  2  0  0  0
  5  6  1  0  0  0
  6  7  1  0  0  0
  7  8  2  0  0  0
  8  9  1  0  0  0
  9 10  2  0  0  0
 10 11  1  0  0  0
 11 12  2  0  0  0
 12 13  1  0  0  0
 13 14  1  0  0  0
 14 15  2  0  0  0
 15 16  1  0  0  0
 16 17  2  0  0  0
 17 18  1  0  0  0
 18 19  2  0  0  0
  6  1  1  0  0  0
 12  7  1  0  0  0
 19 14  1  0  0  0
 19  5  1  0  0  0
M  CHG 1   4  -1
M  CHG 1  22  -1
M  END
> <minimizedAffinity>
-7.05657

$$$$
19_0


 22 25  0  0  0  0  0  0  0  0999 V2000
    8.8091    0.4921  -15.3384 C   0  0  0  0  0  0  0  0  0  0  0  0
    9.5511   -0.2230  -16.2930 C   0  0  0  0  0  0  0  0  0  0  0  0
   10.5778    0.5520  -16.7743 C   0  0  0  0  0  0  0  0  0  0  0  0
   11.4888    0.1251  -17.7260 O   0  0  0  0  0  0  0  0  0  0  0  0
   10.4661    1.7563  -16.1114 C   0  0  0  0  0  0  0  0  0  0  0  0
    9.4133    1.6909  -15.2718 N   0  0  0  0  0  0  0  0  0  0  0  0
    8.9597    2.7369  -14.4296 C   0  0  0  0  0  0  0  0  0  0  0  0
    7.5928    2.6920  -14.3687 N   0  0  0  0  0  0  0  0  0  0  0  0
    6.9401    3.6260  -13.6158 C   0  0  0  0  0  0  0  0  0  0  0  0
    7.6277    4.6003  -12.9248 C   0  0  0  0  0  0  0  0  0  0  0  0
    8.9911    4.6501  -12.9817 N   0  0  0  0  0  0  0  0  0  0  0  0
    9.6285    3.7232  -13.7291 C   0  0  0  0  0  0  0  0  0  0  0  0
   11.4134    3.9338  -13.7386 S   0  0  0  0  0  0  0  0  0  0  0  0
   11.9052    3.7840  -15.4587 C   0  0  0  0  0  0  0  0  0  0  0  0
   12.8238    4.7338  -15.8543 C   0  0  0  0  0  0  0  0  0  0  0  0
   13.2521    4.7252  -17.1811 C   0  0  0  0  0  0  0  0  0  0  0  0
   12.7683    3.7842  -18.0892 C   0  0  0  0  0  0  0  0  0  0  0  0
   11.8359    2.8190  -17.6903 C   0  0  0  0  0  0  0  0  0  0  0  0
   11.4252    2.8420  -16.3753 C   0  0  0  0  0  0  0  0  0  0  0  0
    7.5475   -0.3430  -13.4413 O   0  0  0  0  0  0  0  0  0  0  0  0
    7.6690   -0.0519  -14.6436 C   0  0  0  0  0  0  0  0  0  0  0  0
    6.5159   -0.2973  -15.4077 O   0  0  0  0  0  0  0  0  0  0  0  0
 20 21  2  0  0  0
 21 22  1  0  0  0
 21  1  1  0  0  0
  1  2  2  0  0  0
  2  3  1  0  0  0
  3  4  1  0  0  0
  3  5  2  0  0  0
  5  6  1  0  0  0
  6  7  1  0  0  0
  7  8  2  0  0  0
  8  9  1  0  0  0
  9 10  2  0  0  0
 10 11  1  0  0  0
 11 12  2  0  0  0
 12 13  1  0  0  0
 13 14  1  0  0  0
 14 15  2  0  0  0
 15 16  1  0  0  0
 16 17  2  0  0  0
 17 18  1  0  0  0
 18 19  2  0  0  0
  6  1  1  0  0  0
 12  7  1  0  0  0
 19 14  1  0  0  0
 19  5  1  0  0  0
M  CHG 1   4  -1
M  CHG 1  22  -1
M  END
> <minimizedAffinity>
-6.90546

$$$$
19_0


 22 25  0  0  0  0  0  0  0  0999 V2000
    8.7312    2.8652  -15.5113 C   0  0  0  0  0  0  0  0  0  0  0  0
    9.1597    2.6138  -16.8252 C   0  0  0  0  0  0  0  0  0  0  0  0
   10.0484    3.5805  -17.2280 C   0  0  0  0  0  0  0  0  0  0  0  0
   10.6516    3.6058  -18.4743 O   0  0  0  0  0  0  0  0  0  0  0  0
   10.1670    4.4363  -16.1528 C   0  0  0  0  0  0  0  0  0  0  0  0
    9.3777    3.9886  -15.1557 N   0  0  0  0  0  0  0  0  0  0  0  0
    9.2094    4.6076  -13.8917 C   0  0  0  0  0  0  0  0  0  0  0  0
    7.9088    4.4507  -13.4941 N   0  0  0  0  0  0  0  0  0  0  0  0
    7.5204    4.9864  -12.2993 C   0  0  0  0  0  0  0  0  0  0  0  0
    8.4066    5.6731  -11.4977 C   0  0  0  0  0  0  0  0  0  0  0  0
    9.7052    5.8326  -11.8889 N   0  0  0  0  0  0  0  0  0  0  0  0
   10.0805    5.3005  -13.0722 C   0  0  0  0  0  0  0  0  0  0  0  0
   11.8037    5.6194  -13.4714 S   0  0  0  0  0  0  0  0  0  0  0  0
   11.8074    6.1616  -15.1829 C   0  0  0  0  0  0  0  0  0  0  0  0
   12.6220    7.2502  -15.4146 C   0  0  0  0  0  0  0  0  0  0  0  0
   12.6762    7.7705  -16.7070 C   0  0  0  0  0  0  0  0  0  0  0  0
   11.9289    7.2101  -17.7422 C   0  0  0  0  0  0  0  0  0  0  0  0
   11.1013    6.1050  -17.5097 C   0  0  0  0  0  0  0  0  0  0  0  0
   11.0614    5.6036  -16.2270 C   0  0  0  0  0  0  0  0  0  0  0  0
    6.5587    2.0023  -14.8603 O   0  0  0  0  0  0  0  0  0  0  0  0
    7.8001    2.0239  -14.8015 C   0  0  0  0  0  0  0  0  0  0  0  0
    8.3437    1.0839  -13.9101 O   0  0  0  0  0  0  0  0  0  0  0  0
 20 21  2  0  0  0
 21 22  1  0  0  0
 21  1  1  0  0  0
  1  2  2  0  0  0
  2  3  1  0  0  0
  3  4  1  0  0  0
  3  5  2  0  0  0
  5  6  1  0  0  0
  6  7  1  0  0  0
  7  8  2  0  0  0
  8  9  1  0  0  0
  9 10  2  0  0  0
 10 11  1  0  0  0
 11 12  2  0  0  0
 12 13  1  0  0  0
 13 14  1  0  0  0
 14 15  2  0  0  0
 15 16  1  0  0  0
 16 17  2  0  0  0
 17 18  1  0  0  0
 18 19  2  0  0  0
  6  1  1  0  0  0
 12  7  1  0  0  0
 19 14  1  0  0  0
 19  5  1  0  0  0
M  CHG 1   4  -1
M  CHG 1  22  -1
M  END
> <minimizedAffinity>
-6.78797

$$$$
19_0


 22 25  0  0  0  0  0  0  0  0999 V2000
    7.5368    4.1864  -12.6217 C   0  0  0  0  0  0  0  0  0  0  0  0
    6.2492    3.6478  -12.4637 C   0  0  0  0  0  0  0  0  0  0  0  0
    6.0287    2.6629  -13.3954 C   0  0  0  0  0  0  0  0  0  0  0  0
    4.8518    1.9395  -13.4926 O   0  0  0  0  0  0  0  0  0  0  0  0
    7.1906    2.5957  -14.1354 C   0  0  0  0  0  0  0  0  0  0  0  0
    8.0611    3.5066  -13.6559 N   0  0  0  0  0  0  0  0  0  0  0  0
    9.3602    3.7582  -14.1644 C   0  0  0  0  0  0  0  0  0  0  0  0
    9.6190    5.0990  -14.0677 N   0  0  0  0  0  0  0  0  0  0  0  0
   10.8209    5.5676  -14.5162 C   0  0  0  0  0  0  0  0  0  0  0  0
   11.7653    4.7221  -15.0572 C   0  0  0  0  0  0  0  0  0  0  0  0
   11.5128    3.3837  -15.1560 N   0  0  0  0  0  0  0  0  0  0  0  0
   10.3215    2.9289  -14.7109 C   0  0  0  0  0  0  0  0  0  0  0  0
   10.1161    1.1578  -14.9373 S   0  0  0  0  0  0  0  0  0  0  0  0
    8.4753    0.9504  -15.6358 C   0  0  0  0  0  0  0  0  0  0  0  0
    8.4298    0.0481  -16.6780 C   0  0  0  0  0  0  0  0  0  0  0  0
    7.2066   -0.1667  -17.3117 C   0  0  0  0  0  0  0  0  0  0  0  0
    6.0562    0.5097  -16.9078 C   0  0  0  0  0  0  0  0  0  0  0  0
    6.0997    1.4261  -15.8501 C   0  0  0  0  0  0  0  0  0  0  0  0
    7.3165    1.6245  -15.2351 C   0  0  0  0  0  0  0  0  0  0  0  0
    8.9151    5.1638  -10.8803 O   0  0  0  0  0  0  0  0  0  0  0  0
    8.0701    5.2355  -11.7890 C   0  0  0  0  0  0  0  0  0  0  0  0
    7.5858    6.5349  -12.0143 O   0  0  0  0  0  0  0  0  0  0  0  0
 20 21  2  0  0  0
 21 22  1  0  0  0
 21  1  1  0  0  0
  1  2  2  0  0  0
  2  3  1  0  0  0
  3  4  1  0  0  0
  3  5  2  0  0  0
  5  6  1  0  0  0
  6  7  1  0  0  0
  7  8  2  0  0  0
  8  9  1  0  0  0
  9 10  2  0  0  0
 10 11  1  0  0  0
 11 12  2  0  0  0
 12 13  1  0  0  0
 13 14  1  0  0  0
 14 15  2  0  0  0
 15 16  1  0  0  0
 16 17  2  0  0  0
 17 18  1  0  0  0
 18 19  2  0  0  0
  6  1  1  0  0  0
 12  7  1  0  0  0
 19 14  1  0  0  0
 19  5  1  0  0  0
M  CHG 1   4  -1
M  CHG 1  22  -1
M  END
> <minimizedAffinity>
-6.78687

$$$$
19_0


 22 25  0  0  0  0  0  0  0  0999 V2000
    9.6076    2.6037  -16.8291 C   0  0  0  0  0  0  0  0  0  0  0  0
    8.5692    1.7796  -17.2935 C   0  0  0  0  0  0  0  0  0  0  0  0
    7.5571    1.7233  -16.3668 C   0  0  0  0  0  0  0  0  0  0  0  0
    6.3921    0.9940  -16.5368 O   0  0  0  0  0  0  0  0  0  0  0  0
    7.9768    2.5185  -15.3210 C   0  0  0  0  0  0  0  0  0  0  0  0
    9.1900    3.0234  -15.6225 N   0  0  0  0  0  0  0  0  0  0  0  0
    9.9637    3.8716  -14.7912 C   0  0  0  0  0  0  0  0  0  0  0  0
   11.2864    3.5562  -14.9493 N   0  0  0  0  0  0  0  0  0  0  0  0
   12.2154    4.2482  -14.2258 C   0  0  0  0  0  0  0  0  0  0  0  0
   11.8463    5.2467  -13.3504 C   0  0  0  0  0  0  0  0  0  0  0  0
   10.5285    5.5659  -13.1886 N   0  0  0  0  0  0  0  0  0  0  0  0
    9.6164    4.8761  -13.9073 C   0  0  0  0  0  0  0  0  0  0  0  0
    7.9252    5.3792  -13.5652 S   0  0  0  0  0  0  0  0  0  0  0  0
    7.0046    3.8529  -13.3505 C   0  0  0  0  0  0  0  0  0  0  0  0
    6.1392    3.8775  -12.2768 C   0  0  0  0  0  0  0  0  0  0  0  0
    5.3951    2.7306  -12.0029 C   0  0  0  0  0  0  0  0  0  0  0  0
    5.5181    1.5858  -12.7893 C   0  0  0  0  0  0  0  0  0  0  0  0
    6.3959    1.5583  -13.8797 C   0  0  0  0  0  0  0  0  0  0  0  0
    7.1218    2.7009  -14.1360 C   0  0  0  0  0  0  0  0  0  0  0  0
   11.1468    3.9030  -18.1822 O   0  0  0  0  0  0  0  0  0  0  0  0
   10.8102    2.8700  -17.5785 C   0  0  0  0  0  0  0  0  0  0  0  0
   11.7556    1.8335  -17.6536 O   0  0  0  0  0  0  0  0  0  0  0  0
 20 21  2  0  0  0
 21 22  1  0  0  0
 21  1  1  0  0  0
  1  2  2  0  0  0
  2  3  1  0  0  0
  3  4  1  0  0  0
  3  5  2  0  0  0
  5  6  1  0  0  0
  6  7  1  0  0  0
  7  8  2  0  0  0
  8  9  1  0  0  0
  9 10  2  0  0  0
 10 11  1  0  0  0
 11 12  2  0  0  0
 12 13  1  0  0  0
 13 14  1  0  0  0
 14 15  2  0  0  0
 15 16  1  0  0  0
 16 17  2  0  0  0
 17 18  1  0  0  0
 18 19  2  0  0  0
  6  1  1  0  0  0
 12  7  1  0  0  0
 19 14  1  0  0  0
 19  5  1  0  0  0
M  CHG 1   4  -1
M  CHG 1  22  -1
M  END
> <minimizedAffinity>
-6.62623

$$$$
19_0


 22 25  0  0  0  0  0  0  0  0999 V2000
    8.0441    1.5865  -14.5359 C   0  0  0  0  0  0  0  0  0  0  0  0
    7.1214    0.9434  -13.6944 C   0  0  0  0  0  0  0  0  0  0  0  0
    6.2623    0.1692  -14.4353 C   0  0  0  0  0  0  0  0  0  0  0  0
    5.2416   -0.5919  -13.8906 O   0  0  0  0  0  0  0  0  0  0  0  0
    6.6583    0.3385  -15.7456 C   0  0  0  0  0  0  0  0  0  0  0  0
    7.7110    1.1804  -15.7730 N   0  0  0  0  0  0  0  0  0  0  0  0
    8.3896    1.6197  -16.9374 C   0  0  0  0  0  0  0  0  0  0  0  0
    8.7708    2.9225  -16.7599 N   0  0  0  0  0  0  0  0  0  0  0  0
    9.4344    3.5541  -17.7728 C   0  0  0  0  0  0  0  0  0  0  0  0
    9.7231    2.9080  -18.9555 C   0  0  0  0  0  0  0  0  0  0  0  0
    9.3456    1.6085  -19.1382 N   0  0  0  0  0  0  0  0  0  0  0  0
    8.6891    0.9917  -18.1319 C   0  0  0  0  0  0  0  0  0  0  0  0
    8.2253   -0.6991  -18.5271 S   0  0  0  0  0  0  0  0  0  0  0  0
    6.5117   -0.8587  -18.0158 C   0  0  0  0  0  0  0  0  0  0  0  0
    5.7213   -1.5174  -18.9344 C   0  0  0  0  0  0  0  0  0  0  0  0
    4.3654   -1.6708  -18.6483 C   0  0  0  0  0  0  0  0  0  0  0  0
    3.8166   -1.1736  -17.4668 C   0  0  0  0  0  0  0  0  0  0  0  0
    4.6168   -0.5047  -16.5327 C   0  0  0  0  0  0  0  0  0  0  0  0
    5.9543   -0.3637  -16.8317 C   0  0  0  0  0  0  0  0  0  0  0  0
    8.9930    3.6332  -13.6422 O   0  0  0  0  0  0  0  0  0  0  0  0
    9.0822    2.4651  -14.0573 C   0  0  0  0  0  0  0  0  0  0  0  0
   10.3914    1.9556  -14.0455 O   0  0  0  0  0  0  0  0  0  0  0  0
 20 21  2  0  0  0
 21 22  1  0  0  0
 21  1  1  0  0  0
  1  2  2  0  0  0
  2  3  1  0  0  0
  3  4  1  0  0  0
  3  5  2  0  0  0
  5  6  1  0  0  0
  6  7  1  0  0  0
  7  8  2  0  0  0
  8  9  1  0  0  0
  9 10  2  0  0  0
 10 11  1  0  0  0
 11 12  2  0  0  0
 12 13  1  0  0  0
 13 14  1  0  0  0
 14 15  2  0  0  0
 15 16  1  0  0  0
 16 17  2  0  0  0
 17 18  1  0  0  0
 18 19  2  0  0  0
  6  1  1  0  0  0
 12  7  1  0  0  0
 19 14  1  0  0  0
 19  5  1  0  0  0
M  CHG 1   4  -1
M  CHG 1  22  -1
M  END
> <minimizedAffinity>
-6.47621

$$$$
19_0


 22 25  0  0  0  0  0  0  0  0999 V2000
    9.2081    1.8711  -15.8309 C   0  0  0  0  0  0  0  0  0  0  0  0
   10.2024    1.8217  -16.8219 C   0  0  0  0  0  0  0  0  0  0  0  0
    9.8433    0.9393  -17.8113 C   0  0  0  0  0  0  0  0  0  0  0  0
   10.6163    0.6742  -18.9293 O   0  0  0  0  0  0  0  0  0  0  0  0
    8.6174    0.4391  -17.4251 C   0  0  0  0  0  0  0  0  0  0  0  0
    8.2693    1.0069  -16.2530 N   0  0  0  0  0  0  0  0  0  0  0  0
    7.0859    0.7362  -15.5210 C   0  0  0  0  0  0  0  0  0  0  0  0
    7.3750    0.7823  -14.1837 N   0  0  0  0  0  0  0  0  0  0  0  0
    6.3732    0.5362  -13.2886 C   0  0  0  0  0  0  0  0  0  0  0  0
    5.0920    0.2463  -13.7058 C   0  0  0  0  0  0  0  0  0  0  0  0
    4.7976    0.1991  -15.0384 N   0  0  0  0  0  0  0  0  0  0  0  0
    5.7944    0.4429  -15.9166 C   0  0  0  0  0  0  0  0  0  0  0  0
    5.2692    0.3112  -17.6304 S   0  0  0  0  0  0  0  0  0  0  0  0
    6.5338   -0.6679  -18.4460 C   0  0  0  0  0  0  0  0  0  0  0  0
    6.0252   -1.6315  -19.2917 C   0  0  0  0  0  0  0  0  0  0  0  0
    6.9225   -2.4676  -19.9547 C   0  0  0  0  0  0  0  0  0  0  0  0
    8.2988   -2.3386  -19.7719 C   0  0  0  0  0  0  0  0  0  0  0  0
    8.8177   -1.3613  -18.9141 C   0  0  0  0  0  0  0  0  0  0  0  0
    7.9162   -0.5434  -18.2686 C   0  0  0  0  0  0  0  0  0  0  0  0
    8.6313    3.7274  -14.3786 O   0  0  0  0  0  0  0  0  0  0  0  0
    9.2883    2.7112  -14.6619 C   0  0  0  0  0  0  0  0  0  0  0  0
   10.2338    2.3545  -13.6859 O   0  0  0  0  0  0  0  0  0  0  0  0
 20 21  2  0  0  0
 21 22  1  0  0  0
 21  1  1  0  0  0
  1  2  2  0  0  0
  2  3  1  0  0  0
  3  4  1  0  0  0
  3  5  2  0  0  0
  5  6  1  0  0  0
  6  7  1  0  0  0
  7  8  2  0  0  0
  8  9  1  0  0  0
  9 10  2  0  0  0
 10 11  1  0  0  0
 11 12  2  0  0  0
 12 13  1  0  0  0
 13 14  1  0  0  0
 14 15  2  0  0  0
 15 16  1  0  0  0
 16 17  2  0  0  0
 17 18  1  0  0  0
 18 19  2  0  0  0
  6  1  1  0  0  0
 12  7  1  0  0  0
 19 14  1  0  0  0
 19  5  1  0  0  0
M  CHG 1   4  -1
M  CHG 1  22  -1
M  END
> <minimizedAffinity>
-6.04050

$$$$
