24_0


 33 37  0  0  0  0  0  0  0  0999 V2000
    6.9700    1.9609  -15.2746 C   0  0  0  0  0  0  0  0  0  0  0  0
    6.2855    2.5751  -14.3337 N   0  0  0  0  0  0  0  0  0  0  0  0
    6.6265    3.7229  -13.6279 C   0  0  0  0  0  0  0  0  0  0  0  0
    5.7793    4.4931  -13.0433 N   0  0  0  0  0  0  0  0  0  0  0  0
    6.3894    5.6127  -12.3834 C   0  0  0  0  0  0  0  0  0  0  0  0
    7.8361    5.4894  -12.7012 C   0  0  0  0  0  0  0  0  0  0  0  0
    7.9438    4.2424  -13.4276 N   0  0  0  0  0  0  0  0  0  0  0  0
    9.1329    3.6076  -13.8762 C   0  0  0  0  0  0  0  0  0  0  0  0
   10.3225    3.8045  -13.2123 C   0  0  0  0  0  0  0  0  0  0  0  0
   11.2504    3.0578  -13.8647 C   0  0  0  0  0  0  0  0  0  0  0  0
   10.5737    2.4285  -14.9157 C   0  0  0  0  0  0  0  0  0  0  0  0
    9.2777    2.7685  -14.9198 N   0  0  0  0  0  0  0  0  0  0  0  0
    8.2380    2.3550  -15.8534 C   0  0  0  0  0  0  0  0  0  0  0  0
    4.7428    4.3269  -13.0437 H   0  0  0  0  0  0  0  0  0  0  0  0
    8.7446    1.5473  -17.0045 C   0  0  0  0  0  0  0  0  0  0  0  0
    9.6056    2.3540  -17.9633 C   0  0  0  0  0  0  0  0  0  0  0  0
   10.7025    1.6582  -18.6321 C   0  0  0  0  0  0  0  0  0  0  0  0
   10.5013    0.3017  -19.1747 C   0  0  0  0  0  0  0  0  0  0  0  0
    9.1609   -0.3296  -18.9774 C   0  0  0  0  0  0  0  0  0  0  0  0
    8.9304   -0.7531  -17.6010 N   0  0  0  0  0  0  0  0  0  0  0  0
    9.4462    0.2503  -16.6821 C   0  0  0  0  0  0  0  0  0  0  0  0
    7.9012   -0.7716  -17.5000 H   0  0  0  0  0  0  0  0  0  0  0  0
    9.2866   -1.7041  -17.3890 H   0  0  0  0  0  0  0  0  0  0  0  0
    6.1592   -0.3216  -14.8813 C   0  0  0  0  0  0  0  0  0  0  0  0
    5.4483   -1.4109  -15.3004 N   0  0  0  0  0  0  0  0  0  0  0  0
    4.7813   -1.4784  -16.4554 C   0  0  0  0  0  0  0  0  0  0  0  0
    4.7937   -0.3934  -17.2990 C   0  0  0  0  0  0  0  0  0  0  0  0
    5.5045    0.7122  -16.8912 C   0  0  0  0  0  0  0  0  0  0  0  0
    6.1935    0.8013  -15.7102 C   0  0  0  0  0  0  0  0  0  0  0  0
    8.1803   -0.1265  -13.5689 F   0  0  0  0  0  0  0  0  0  0  0  0
    6.8775   -0.4427  -13.6174 C   0  0  0  0  0  0  0  0  0  0  0  0
    6.7910   -1.7803  -13.1699 F   0  0  0  0  0  0  0  0  0  0  0  0
    6.2256    0.2837  -12.6228 F   0  0  0  0  0  0  0  0  0  0  0  0
 30 31  1  0  0  0
 31 32  1  0  0  0
 31 33  1  0  0  0
 31 24  1  0  0  0
 24 25  2  0  0  0
 25 26  1  0  0  0
 26 27  2  0  0  0
 27 28  1  0  0  0
 28 29  2  0  0  0
 29  1  1  0  0  0
  1  2  2  0  0  0
  2  3  1  0  0  0
  3  4  2  0  0  0
  4  5  1  0  0  0
  5  6  1  0  0  0
  6  7  1  0  0  0
  7  8  1  0  0  0
  8  9  2  0  0  0
  9 10  1  0  0  0
 10 11  2  0  0  0
 11 12  1  0  0  0
 12 13  1  0  0  0
 13 15  1  0  0  0
 15 16  1  0  0  0
 16 17  1  0  0  0
 17 18  1  0  0  0
 18 19  1  0  0  0
 19 20  1  0  0  0
 20 21  1  0  0  0
 29 24  1  0  0  0
 13  1  1  0  0  0
 21 15  1  0  0  0
  7  3  1  0  0  0
 12  8  1  0  0  0
  4 14  1  0  0  0
 20 22  1  0  0  0
 20 23  1  0  0  0
M  CHG 1   4   1
M  CHG 1  20   1
M  END
> <minimizedAffinity>
-8.49303

$$$$
24_0


 33 37  0  0  0  0  0  0  0  0999 V2000
    8.8445    3.1579  -15.3855 C   0  0  0  0  0  0  0  0  0  0  0  0
    8.0713    3.7650  -14.5110 N   0  0  0  0  0  0  0  0  0  0  0  0
    7.0453    3.2249  -13.7446 C   0  0  0  0  0  0  0  0  0  0  0  0
    6.6155    3.7350  -12.6456 N   0  0  0  0  0  0  0  0  0  0  0  0
    5.5478    2.9832  -12.0488 C   0  0  0  0  0  0  0  0  0  0  0  0
    5.3826    1.8022  -12.9360 C   0  0  0  0  0  0  0  0  0  0  0  0
    6.3005    2.0378  -14.0298 N   0  0  0  0  0  0  0  0  0  0  0  0
    6.4601    1.2536  -15.2035 C   0  0  0  0  0  0  0  0  0  0  0  0
    5.4099    0.5126  -15.6961 C   0  0  0  0  0  0  0  0  0  0  0  0
    5.8691   -0.0988  -16.8184 C   0  0  0  0  0  0  0  0  0  0  0  0
    7.2018    0.3032  -16.9623 C   0  0  0  0  0  0  0  0  0  0  0  0
    7.5601    1.1304  -15.9710 N   0  0  0  0  0  0  0  0  0  0  0  0
    8.8568    1.7530  -15.7378 C   0  0  0  0  0  0  0  0  0  0  0  0
    7.0015    4.6136  -12.2201 H   0  0  0  0  0  0  0  0  0  0  0  0
    9.9266    1.2923  -16.6745 C   0  0  0  0  0  0  0  0  0  0  0  0
   10.3368   -0.1532  -16.4434 C   0  0  0  0  0  0  0  0  0  0  0  0
   10.7440   -0.9328  -17.6101 C   0  0  0  0  0  0  0  0  0  0  0  0
   11.6151   -0.3329  -18.6378 C   0  0  0  0  0  0  0  0  0  0  0  0
   12.0214    1.0935  -18.4523 C   0  0  0  0  0  0  0  0  0  0  0  0
   10.9329    2.0308  -18.7053 N   0  0  0  0  0  0  0  0  0  0  0  0
    9.6930    1.5100  -18.1498 C   0  0  0  0  0  0  0  0  0  0  0  0
   11.1854    2.8784  -18.1691 H   0  0  0  0  0  0  0  0  0  0  0  0
   10.8365    2.3032  -19.7016 H   0  0  0  0  0  0  0  0  0  0  0  0
   10.9536    4.4024  -15.2287 C   0  0  0  0  0  0  0  0  0  0  0  0
   11.8097    5.3432  -15.7284 N   0  0  0  0  0  0  0  0  0  0  0  0
   11.5939    6.0430  -16.8451 C   0  0  0  0  0  0  0  0  0  0  0  0
   10.4408    5.8228  -17.5599 C   0  0  0  0  0  0  0  0  0  0  0  0
    9.5683    4.8777  -17.0704 C   0  0  0  0  0  0  0  0  0  0  0  0
    9.7723    4.1487  -15.9283 C   0  0  0  0  0  0  0  0  0  0  0  0
   11.2207    2.4437  -13.8368 F   0  0  0  0  0  0  0  0  0  0  0  0
   11.3200    3.7755  -13.9635 C   0  0  0  0  0  0  0  0  0  0  0  0
   10.5168    4.3190  -12.9356 F   0  0  0  0  0  0  0  0  0  0  0  0
   12.6151    4.1422  -13.6027 F   0  0  0  0  0  0  0  0  0  0  0  0
 30 31  1  0  0  0
 31 32  1  0  0  0
 31 33  1  0  0  0
 31 24  1  0  0  0
 24 25  2  0  0  0
 25 26  1  0  0  0
 26 27  2  0  0  0
 27 28  1  0  0  0
 28 29  2  0  0  0
 29  1  1  0  0  0
  1  2  2  0  0  0
  2  3  1  0  0  0
  3  4  2  0  0  0
  4  5  1  0  0  0
  5  6  1  0  0  0
  6  7  1  0  0  0
  7  8  1  0  0  0
  8  9  2  0  0  0
  9 10  1  0  0  0
 10 11  2  0  0  0
 11 12  1  0  0  0
 12 13  1  0  0  0
 13 15  1  0  0  0
 15 16  1  0  0  0
 16 17  1  0  0  0
 17 18  1  0  0  0
 18 19  1  0  0  0
 19 20  1  0  0  0
 20 21  1  0  0  0
 29 24  1  0  0  0
 13  1  1  0  0  0
 21 15  1  0  0  0
  7  3  1  0  0  0
 12  8  1  0  0  0
  4 14  1  0  0  0
 20 22  1  0  0  0
 20 23  1  0  0  0
M  CHG 1   4   1
M  CHG 1  20   1
M  END
> <minimizedAffinity>
-8.38516

$$$$
24_0


 33 37  0  0  0  0  0  0  0  0999 V2000
    7.9922    1.7964  -17.2947 C   0  0  0  0  0  0  0  0  0  0  0  0
    7.2543    1.1373  -18.1620 N   0  0  0  0  0  0  0  0  0  0  0  0
    6.0554    0.4689  -17.9434 C   0  0  0  0  0  0  0  0  0  0  0  0
    5.1924    0.2094  -18.8603 N   0  0  0  0  0  0  0  0  0  0  0  0
    4.0380   -0.4914  -18.3728 C   0  0  0  0  0  0  0  0  0  0  0  0
    4.2567   -0.5948  -16.9063 C   0  0  0  0  0  0  0  0  0  0  0  0
    5.5759   -0.0386  -16.6953 N   0  0  0  0  0  0  0  0  0  0  0  0
    6.3051    0.0089  -15.4771 C   0  0  0  0  0  0  0  0  0  0  0  0
    6.0925   -0.9359  -14.4989 C   0  0  0  0  0  0  0  0  0  0  0  0
    6.9427   -0.6315  -13.4846 C   0  0  0  0  0  0  0  0  0  0  0  0
    7.6477    0.5052  -13.8965 C   0  0  0  0  0  0  0  0  0  0  0  0
    7.2536    0.8947  -15.1165 N   0  0  0  0  0  0  0  0  0  0  0  0
    7.7161    2.0375  -15.8934 C   0  0  0  0  0  0  0  0  0  0  0  0
    5.3122    0.4795  -19.8675 H   0  0  0  0  0  0  0  0  0  0  0  0
    8.6603    2.9297  -15.1542 C   0  0  0  0  0  0  0  0  0  0  0  0
    7.9682    3.7958  -14.1140 C   0  0  0  0  0  0  0  0  0  0  0  0
    8.7141    4.1153  -12.8990 C   0  0  0  0  0  0  0  0  0  0  0  0
   10.1394    4.4859  -12.9776 C   0  0  0  0  0  0  0  0  0  0  0  0
   10.7811    4.4812  -14.3275 C   0  0  0  0  0  0  0  0  0  0  0  0
   11.0142    3.1358  -14.8401 N   0  0  0  0  0  0  0  0  0  0  0  0
    9.8748    2.2850  -14.5316 C   0  0  0  0  0  0  0  0  0  0  0  0
   11.0527    3.2485  -15.8675 H   0  0  0  0  0  0  0  0  0  0  0  0
   11.9135    2.7195  -14.5332 H   0  0  0  0  0  0  0  0  0  0  0  0
   10.2515    1.4814  -18.1993 C   0  0  0  0  0  0  0  0  0  0  0  0
   11.3451    1.9841  -18.8467 N   0  0  0  0  0  0  0  0  0  0  0  0
   11.4410    3.2336  -19.3081 C   0  0  0  0  0  0  0  0  0  0  0  0
   10.3834    4.0938  -19.1336 C   0  0  0  0  0  0  0  0  0  0  0  0
    9.2738    3.6027  -18.4842 C   0  0  0  0  0  0  0  0  0  0  0  0
    9.1557    2.3244  -18.0051 C   0  0  0  0  0  0  0  0  0  0  0  0
   10.0826   -0.1441  -16.4176 F   0  0  0  0  0  0  0  0  0  0  0  0
   10.3411    0.1104  -17.7091 C   0  0  0  0  0  0  0  0  0  0  0  0
   11.6491   -0.3721  -17.9402 F   0  0  0  0  0  0  0  0  0  0  0  0
    9.5365   -0.7283  -18.4779 F   0  0  0  0  0  0  0  0  0  0  0  0
 30 31  1  0  0  0
 31 32  1  0  0  0
 31 33  1  0  0  0
 31 24  1  0  0  0
 24 25  2  0  0  0
 25 26  1  0  0  0
 26 27  2  0  0  0
 27 28  1  0  0  0
 28 29  2  0  0  0
 29  1  1  0  0  0
  1  2  2  0  0  0
  2  3  1  0  0  0
  3  4  2  0  0  0
  4  5  1  0  0  0
  5  6  1  0  0  0
  6  7  1  0  0  0
  7  8  1  0  0  0
  8  9  2  0  0  0
  9 10  1  0  0  0
 10 11  2  0  0  0
 11 12  1  0  0  0
 12 13  1  0  0  0
 13 15  1  0  0  0
 15 16  1  0  0  0
 16 17  1  0  0  0
 17 18  1  0  0  0
 18 19  1  0  0  0
 19 20  1  0  0  0
 20 21  1  0  0  0
 29 24  1  0  0  0
 13  1  1  0  0  0
 21 15  1  0  0  0
  7  3  1  0  0  0
 12  8  1  0  0  0
  4 14  1  0  0  0
 20 22  1  0  0  0
 20 23  1  0  0  0
M  CHG 1   4   1
M  CHG 1  20   1
M  END
> <minimizedAffinity>
-8.14043

$$$$
24_0


 33 37  0  0  0  0  0  0  0  0999 V2000
    8.4002    1.3587  -17.7910 C   0  0  0  0  0  0  0  0  0  0  0  0
    7.7606    0.8737  -18.8335 N   0  0  0  0  0  0  0  0  0  0  0  0
    6.3999    0.6269  -18.9732 C   0  0  0  0  0  0  0  0  0  0  0  0
    5.7884    0.5537  -20.1017 N   0  0  0  0  0  0  0  0  0  0  0  0
    4.3834    0.2890  -19.9711 C   0  0  0  0  0  0  0  0  0  0  0  0
    4.1429    0.2684  -18.5045 C   0  0  0  0  0  0  0  0  0  0  0  0
    5.4579    0.4145  -17.9183 N   0  0  0  0  0  0  0  0  0  0  0  0
    5.7970    0.3571  -16.5400 C   0  0  0  0  0  0  0  0  0  0  0  0
    5.0316   -0.3774  -15.6628 C   0  0  0  0  0  0  0  0  0  0  0  0
    5.6189   -0.2482  -14.4452 C   0  0  0  0  0  0  0  0  0  0  0  0
    6.7352    0.5737  -14.6374 C   0  0  0  0  0  0  0  0  0  0  0  0
    6.8401    0.9429  -15.9211 N   0  0  0  0  0  0  0  0  0  0  0  0
    7.8395    1.8087  -16.5336 C   0  0  0  0  0  0  0  0  0  0  0  0
    6.2620    0.6743  -21.0307 H   0  0  0  0  0  0  0  0  0  0  0  0
    8.7760    2.4392  -15.5541 C   0  0  0  0  0  0  0  0  0  0  0  0
    8.1640    3.6245  -14.8250 C   0  0  0  0  0  0  0  0  0  0  0  0
    8.5801    3.8536  -13.4433 C   0  0  0  0  0  0  0  0  0  0  0  0
    9.9988    3.7216  -13.0625 C   0  0  0  0  0  0  0  0  0  0  0  0
   10.9647    3.3125  -14.1273 C   0  0  0  0  0  0  0  0  0  0  0  0
   10.8432    1.9060  -14.4934 N   0  0  0  0  0  0  0  0  0  0  0  0
    9.4389    1.5291  -14.5486 C   0  0  0  0  0  0  0  0  0  0  0  0
   11.2210    1.8505  -15.4546 H   0  0  0  0  0  0  0  0  0  0  0  0
   11.4012    1.2670  -13.8964 H   0  0  0  0  0  0  0  0  0  0  0  0
   10.2945    2.6020  -18.7332 C   0  0  0  0  0  0  0  0  0  0  0  0
   11.6181    2.6628  -19.0677 N   0  0  0  0  0  0  0  0  0  0  0  0
   12.4953    1.6775  -18.8597 C   0  0  0  0  0  0  0  0  0  0  0  0
   12.0649    0.5123  -18.2714 C   0  0  0  0  0  0  0  0  0  0  0  0
   10.7346    0.4354  -17.9277 C   0  0  0  0  0  0  0  0  0  0  0  0
    9.8199    1.4351  -18.1313 C   0  0  0  0  0  0  0  0  0  0  0  0
    8.3488    3.5567  -19.8049 F   0  0  0  0  0  0  0  0  0  0  0  0
    9.4660    3.7492  -19.0876 C   0  0  0  0  0  0  0  0  0  0  0  0
   10.2462    4.6629  -19.8315 F   0  0  0  0  0  0  0  0  0  0  0  0
    9.1190    4.4634  -17.9424 F   0  0  0  0  0  0  0  0  0  0  0  0
 30 31  1  0  0  0
 31 32  1  0  0  0
 31 33  1  0  0  0
 31 24  1  0  0  0
 24 25  2  0  0  0
 25 26  1  0  0  0
 26 27  2  0  0  0
 27 28  1  0  0  0
 28 29  2  0  0  0
 29  1  1  0  0  0
  1  2  2  0  0  0
  2  3  1  0  0  0
  3  4  2  0  0  0
  4  5  1  0  0  0
  5  6  1  0  0  0
  6  7  1  0  0  0
  7  8  1  0  0  0
  8  9  2  0  0  0
  9 10  1  0  0  0
 10 11  2  0  0  0
 11 12  1  0  0  0
 12 13  1  0  0  0
 13 15  1  0  0  0
 15 16  1  0  0  0
 16 17  1  0  0  0
 17 18  1  0  0  0
 18 19  1  0  0  0
 19 20  1  0  0  0
 20 21  1  0  0  0
 29 24  1  0  0  0
 13  1  1  0  0  0
 21 15  1  0  0  0
  7  3  1  0  0  0
 12  8  1  0  0  0
  4 14  1  0  0  0
 20 22  1  0  0  0
 20 23  1  0  0  0
M  CHG 1   4   1
M  CHG 1  20   1
M  END
> <minimizedAffinity>
-7.09002

$$$$
24_0


 33 37  0  0  0  0  0  0  0  0999 V2000
    8.7042    1.9482  -15.7771 C   0  0  0  0  0  0  0  0  0  0  0  0
    7.7531    1.4283  -15.0313 N   0  0  0  0  0  0  0  0  0  0  0  0
    6.9540    2.0612  -14.0865 C   0  0  0  0  0  0  0  0  0  0  0  0
    5.8054    1.6299  -13.7025 N   0  0  0  0  0  0  0  0  0  0  0  0
    5.1838    2.4680  -12.7163 C   0  0  0  0  0  0  0  0  0  0  0  0
    6.1195    3.6117  -12.5561 C   0  0  0  0  0  0  0  0  0  0  0  0
    7.2541    3.2725  -13.3879 N   0  0  0  0  0  0  0  0  0  0  0  0
    8.4748    3.9884  -13.5122 C   0  0  0  0  0  0  0  0  0  0  0  0
    8.9396    4.7616  -12.4725 C   0  0  0  0  0  0  0  0  0  0  0  0
   10.1185    5.2911  -12.8897 C   0  0  0  0  0  0  0  0  0  0  0  0
   10.3233    4.8092  -14.1875 C   0  0  0  0  0  0  0  0  0  0  0  0
    9.3142    4.0129  -14.5653 N   0  0  0  0  0  0  0  0  0  0  0  0
    9.1294    3.3314  -15.8401 C   0  0  0  0  0  0  0  0  0  0  0  0
    5.3592    0.7531  -14.0687 H   0  0  0  0  0  0  0  0  0  0  0  0
   10.1532    3.6858  -16.8697 C   0  0  0  0  0  0  0  0  0  0  0  0
    9.9242    5.0553  -17.4887 C   0  0  0  0  0  0  0  0  0  0  0  0
   11.1036    5.8209  -17.8858 C   0  0  0  0  0  0  0  0  0  0  0  0
   12.2273    5.1541  -18.5696 C   0  0  0  0  0  0  0  0  0  0  0  0
   12.1210    3.6807  -18.7975 C   0  0  0  0  0  0  0  0  0  0  0  0
   12.2918    2.9038  -17.5750 N   0  0  0  0  0  0  0  0  0  0  0  0
   11.6040    3.5591  -16.4728 C   0  0  0  0  0  0  0  0  0  0  0  0
   11.8059    2.0100  -17.7611 H   0  0  0  0  0  0  0  0  0  0  0  0
   13.2809    2.6860  -17.3508 H   0  0  0  0  0  0  0  0  0  0  0  0
    8.6417    0.6292  -17.8455 C   0  0  0  0  0  0  0  0  0  0  0  0
    9.1430   -0.3808  -18.6176 N   0  0  0  0  0  0  0  0  0  0  0  0
   10.1801   -1.1493  -18.2752 C   0  0  0  0  0  0  0  0  0  0  0  0
   10.8042   -0.9320  -17.0701 C   0  0  0  0  0  0  0  0  0  0  0  0
   10.3120    0.0822  -16.2808 C   0  0  0  0  0  0  0  0  0  0  0  0
    9.2508    0.8821  -16.6149 C   0  0  0  0  0  0  0  0  0  0  0  0
    6.3864    1.4525  -17.5606 F   0  0  0  0  0  0  0  0  0  0  0  0
    7.4651    1.3294  -18.3487 C   0  0  0  0  0  0  0  0  0  0  0  0
    7.0125    0.6784  -19.5185 F   0  0  0  0  0  0  0  0  0  0  0  0
    7.8166    2.6030  -18.7916 F   0  0  0  0  0  0  0  0  0  0  0  0
 30 31  1  0  0  0
 31 32  1  0  0  0
 31 33  1  0  0  0
 31 24  1  0  0  0
 24 25  2  0  0  0
 25 26  1  0  0  0
 26 27  2  0  0  0
 27 28  1  0  0  0
 28 29  2  0  0  0
 29  1  1  0  0  0
  1  2  2  0  0  0
  2  3  1  0  0  0
  3  4  2  0  0  0
  4  5  1  0  0  0
  5  6  1  0  0  0
  6  7  1  0  0  0
  7  8  1  0  0  0
  8  9  2  0  0  0
  9 10  1  0  0  0
 10 11  2  0  0  0
 11 12  1  0  0  0
 12 13  1  0  0  0
 13 15  1  0  0  0
 15 16  1  0  0  0
 16 17  1  0  0  0
 17 18  1  0  0  0
 18 19  1  0  0  0
 19 20  1  0  0  0
 20 21  1  0  0  0
 29 24  1  0  0  0
 13  1  1  0  0  0
 21 15  1  0  0  0
  7  3  1  0  0  0
 12  8  1  0  0  0
  4 14  1  0  0  0
 20 22  1  0  0  0
 20 23  1  0  0  0
M  CHG 1   4   1
M  CHG 1  20   1
M  END
> <minimizedAffinity>
-7.04040

$$$$
24_0


 33 37  0  0  0  0  0  0  0  0999 V2000
    8.1122    2.3349  -16.2553 C   0  0  0  0  0  0  0  0  0  0  0  0
    7.2980    2.0280  -15.2685 N   0  0  0  0  0  0  0  0  0  0  0  0
    7.0313    2.7522  -14.1125 C   0  0  0  0  0  0  0  0  0  0  0  0
    5.9628    2.6269  -13.4086 N   0  0  0  0  0  0  0  0  0  0  0  0
    5.9322    3.4909  -12.2624 C   0  0  0  0  0  0  0  0  0  0  0  0
    7.1786    4.2936  -12.3676 C   0  0  0  0  0  0  0  0  0  0  0  0
    7.8722    3.7403  -13.5108 N   0  0  0  0  0  0  0  0  0  0  0  0
    9.1666    4.0867  -13.9828 C   0  0  0  0  0  0  0  0  0  0  0  0
   10.1189    4.5723  -13.1156 C   0  0  0  0  0  0  0  0  0  0  0  0
   11.2357    4.7862  -13.8580 C   0  0  0  0  0  0  0  0  0  0  0  0
   10.9089    4.4155  -15.1673 C   0  0  0  0  0  0  0  0  0  0  0  0
    9.6408    3.9887  -15.2396 N   0  0  0  0  0  0  0  0  0  0  0  0
    8.9050    3.5368  -16.4135 C   0  0  0  0  0  0  0  0  0  0  0  0
    5.1854    1.9613  -13.6420 H   0  0  0  0  0  0  0  0  0  0  0  0
    9.6547    3.6975  -17.6965 C   0  0  0  0  0  0  0  0  0  0  0  0
    9.5738    5.1073  -18.2595 C   0  0  0  0  0  0  0  0  0  0  0  0
   10.7362    5.6093  -18.9887 C   0  0  0  0  0  0  0  0  0  0  0  0
   11.4477    4.7389  -19.9432 C   0  0  0  0  0  0  0  0  0  0  0  0
   10.9569    3.3355  -20.0969 C   0  0  0  0  0  0  0  0  0  0  0  0
   11.2830    2.4920  -18.9526 N   0  0  0  0  0  0  0  0  0  0  0  0
   11.0925    3.2383  -17.7181 C   0  0  0  0  0  0  0  0  0  0  0  0
   10.5782    1.7354  -18.9739 H   0  0  0  0  0  0  0  0  0  0  0  0
   12.2211    2.0527  -19.0086 H   0  0  0  0  0  0  0  0  0  0  0  0
    8.9181    0.1772  -17.1017 C   0  0  0  0  0  0  0  0  0  0  0  0
    8.8676   -0.8179  -18.0371 N   0  0  0  0  0  0  0  0  0  0  0  0
    8.0392   -0.8280  -19.0845 C   0  0  0  0  0  0  0  0  0  0  0  0
    7.1680    0.2207  -19.2580 C   0  0  0  0  0  0  0  0  0  0  0  0
    7.2056    1.2308  -18.3240 C   0  0  0  0  0  0  0  0  0  0  0  0
    8.0465    1.2587  -17.2426 C   0  0  0  0  0  0  0  0  0  0  0  0
   10.7810    1.0676  -15.8438 F   0  0  0  0  0  0  0  0  0  0  0  0
    9.9268    0.0549  -16.0550 C   0  0  0  0  0  0  0  0  0  0  0  0
   10.7314   -1.0746  -16.3265 F   0  0  0  0  0  0  0  0  0  0  0  0
    9.3216   -0.2526  -14.8380 F   0  0  0  0  0  0  0  0  0  0  0  0
 30 31  1  0  0  0
 31 32  1  0  0  0
 31 33  1  0  0  0
 31 24  1  0  0  0
 24 25  2  0  0  0
 25 26  1  0  0  0
 26 27  2  0  0  0
 27 28  1  0  0  0
 28 29  2  0  0  0
 29  1  1  0  0  0
  1  2  2  0  0  0
  2  3  1  0  0  0
  3  4  2  0  0  0
  4  5  1  0  0  0
  5  6  1  0  0  0
  6  7  1  0  0  0
  7  8  1  0  0  0
  8  9  2  0  0  0
  9 10  1  0  0  0
 10 11  2  0  0  0
 11 12  1  0  0  0
 12 13  1  0  0  0
 13 15  1  0  0  0
 15 16  1  0  0  0
 16 17  1  0  0  0
 17 18  1  0  0  0
 18 19  1  0  0  0
 19 20  1  0  0  0
 20 21  1  0  0  0
 29 24  1  0  0  0
 13  1  1  0  0  0
 21 15  1  0  0  0
  7  3  1  0  0  0
 12  8  1  0  0  0
  4 14  1  0  0  0
 20 22  1  0  0  0
 20 23  1  0  0  0
M  CHG 1   4   1
M  CHG 1  20   1
M  END
> <minimizedAffinity>
-6.96065

$$$$
24_0


 33 37  0  0  0  0  0  0  0  0999 V2000
   10.2277    3.3817  -16.5761 C   0  0  0  0  0  0  0  0  0  0  0  0
    9.3784    2.7246  -15.8159 N   0  0  0  0  0  0  0  0  0  0  0  0
    8.6346    3.1998  -14.7422 C   0  0  0  0  0  0  0  0  0  0  0  0
    7.5512    2.6565  -14.3137 N   0  0  0  0  0  0  0  0  0  0  0  0
    6.9764    3.3424  -13.1910 C   0  0  0  0  0  0  0  0  0  0  0  0
    7.8582    4.5206  -12.9829 C   0  0  0  0  0  0  0  0  0  0  0  0
    8.9296    4.3465  -13.9400 N   0  0  0  0  0  0  0  0  0  0  0  0
   10.0926    5.1492  -14.0855 C   0  0  0  0  0  0  0  0  0  0  0  0
   10.6065    5.8354  -13.0086 C   0  0  0  0  0  0  0  0  0  0  0  0
   11.7117    6.4817  -13.4615 C   0  0  0  0  0  0  0  0  0  0  0  0
   11.8241    6.1555  -14.8177 C   0  0  0  0  0  0  0  0  0  0  0  0
   10.8304    5.3403  -15.1961 N   0  0  0  0  0  0  0  0  0  0  0  0
   10.5685    4.7884  -16.5192 C   0  0  0  0  0  0  0  0  0  0  0  0
    7.1227    1.7968  -14.7370 H   0  0  0  0  0  0  0  0  0  0  0  0
   11.4735    5.3164  -17.5851 C   0  0  0  0  0  0  0  0  0  0  0  0
   10.9107    6.5400  -18.2902 C   0  0  0  0  0  0  0  0  0  0  0  0
   11.8619    7.5470  -18.7546 C   0  0  0  0  0  0  0  0  0  0  0  0
   13.1183    7.1370  -19.4092 C   0  0  0  0  0  0  0  0  0  0  0  0
   13.3844    5.6718  -19.5372 C   0  0  0  0  0  0  0  0  0  0  0  0
   13.7413    5.0471  -18.2684 N   0  0  0  0  0  0  0  0  0  0  0  0
   12.9090    5.5833  -17.2021 C   0  0  0  0  0  0  0  0  0  0  0  0
   13.4949    4.0497  -18.3876 H   0  0  0  0  0  0  0  0  0  0  0  0
   14.7529    5.0990  -18.0448 H   0  0  0  0  0  0  0  0  0  0  0  0
    9.9400    2.1054  -18.6522 C   0  0  0  0  0  0  0  0  0  0  0  0
   10.4276    1.2183  -19.5703 N   0  0  0  0  0  0  0  0  0  0  0  0
   11.6350    0.6515  -19.5050 C   0  0  0  0  0  0  0  0  0  0  0  0
   12.4640    0.9632  -18.4541 C   0  0  0  0  0  0  0  0  0  0  0  0
   11.9883    1.8560  -17.5211 C   0  0  0  0  0  0  0  0  0  0  0  0
   10.7540    2.4490  -17.5712 C   0  0  0  0  0  0  0  0  0  0  0  0
    7.6292    2.2498  -17.9559 F   0  0  0  0  0  0  0  0  0  0  0  0
    8.5750    2.5815  -18.8476 C   0  0  0  0  0  0  0  0  0  0  0  0
    8.1042    2.1167  -20.0963 F   0  0  0  0  0  0  0  0  0  0  0  0
    8.5646    3.9683  -18.9835 F   0  0  0  0  0  0  0  0  0  0  0  0
 30 31  1  0  0  0
 31 32  1  0  0  0
 31 33  1  0  0  0
 31 24  1  0  0  0
 24 25  2  0  0  0
 25 26  1  0  0  0
 26 27  2  0  0  0
 27 28  1  0  0  0
 28 29  2  0  0  0
 29  1  1  0  0  0
  1  2  2  0  0  0
  2  3  1  0  0  0
  3  4  2  0  0  0
  4  5  1  0  0  0
  5  6  1  0  0  0
  6  7  1  0  0  0
  7  8  1  0  0  0
  8  9  2  0  0  0
  9 10  1  0  0  0
 10 11  2  0  0  0
 11 12  1  0  0  0
 12 13  1  0  0  0
 13 15  1  0  0  0
 15 16  1  0  0  0
 16 17  1  0  0  0
 17 18  1  0  0  0
 18 19  1  0  0  0
 19 20  1  0  0  0
 20 21  1  0  0  0
 29 24  1  0  0  0
 13  1  1  0  0  0
 21 15  1  0  0  0
  7  3  1  0  0  0
 12  8  1  0  0  0
  4 14  1  0  0  0
 20 22  1  0  0  0
 20 23  1  0  0  0
M  CHG 1   4   1
M  CHG 1  20   1
M  END
> <minimizedAffinity>
-6.24829

$$$$
24_0


 33 37  0  0  0  0  0  0  0  0999 V2000
    8.8261    3.5328  -15.8337 C   0  0  0  0  0  0  0  0  0  0  0  0
    7.9104    3.2713  -14.9259 N   0  0  0  0  0  0  0  0  0  0  0  0
    7.5380    4.0397  -13.8292 C   0  0  0  0  0  0  0  0  0  0  0  0
    6.4012    3.9525  -13.2352 N   0  0  0  0  0  0  0  0  0  0  0  0
    6.2668    4.8575  -12.1288 C   0  0  0  0  0  0  0  0  0  0  0  0
    7.5298    5.6410  -12.1327 C   0  0  0  0  0  0  0  0  0  0  0  0
    8.3281    5.0387  -13.1787 N   0  0  0  0  0  0  0  0  0  0  0  0
    9.6693    5.3523  -13.5265 C   0  0  0  0  0  0  0  0  0  0  0  0
   10.5352    5.8574  -12.5832 C   0  0  0  0  0  0  0  0  0  0  0  0
   11.7254    6.0311  -13.2137 C   0  0  0  0  0  0  0  0  0  0  0  0
   11.5287    5.6175  -14.5361 C   0  0  0  0  0  0  0  0  0  0  0  0
   10.2683    5.2036  -14.7238 N   0  0  0  0  0  0  0  0  0  0  0  0
    9.6497    4.7186  -15.9508 C   0  0  0  0  0  0  0  0  0  0  0  0
    5.6415    3.2884  -13.5242 H   0  0  0  0  0  0  0  0  0  0  0  0
   10.5292    4.8240  -17.1546 C   0  0  0  0  0  0  0  0  0  0  0  0
   10.6792    6.2507  -17.6580 C   0  0  0  0  0  0  0  0  0  0  0  0
   11.9580    6.6222  -18.2590 C   0  0  0  0  0  0  0  0  0  0  0  0
   12.6396    5.6997  -19.1860 C   0  0  0  0  0  0  0  0  0  0  0  0
   11.9923    4.3777  -19.4457 C   0  0  0  0  0  0  0  0  0  0  0  0
   12.1021    3.4609  -18.3167 N   0  0  0  0  0  0  0  0  0  0  0  0
   11.8935    4.1835  -17.0710 C   0  0  0  0  0  0  0  0  0  0  0  0
   11.3126    2.8031  -18.4340 H   0  0  0  0  0  0  0  0  0  0  0  0
   12.9785    2.9059  -18.3102 H   0  0  0  0  0  0  0  0  0  0  0  0
    9.3380    1.1897  -16.3531 C   0  0  0  0  0  0  0  0  0  0  0  0
    9.3725    0.1592  -17.2500 N   0  0  0  0  0  0  0  0  0  0  0  0
    8.9673    0.2493  -18.5193 C   0  0  0  0  0  0  0  0  0  0  0  0
    8.4781    1.4476  -18.9815 C   0  0  0  0  0  0  0  0  0  0  0  0
    8.4358    2.4955  -18.0903 C   0  0  0  0  0  0  0  0  0  0  0  0
    8.8452    2.4226  -16.7847 C   0  0  0  0  0  0  0  0  0  0  0  0
   10.6329   -0.1585  -14.8197 F   0  0  0  0  0  0  0  0  0  0  0  0
    9.8767    0.9309  -15.0223 C   0  0  0  0  0  0  0  0  0  0  0  0
    8.8041    0.8281  -14.1080 F   0  0  0  0  0  0  0  0  0  0  0  0
   10.5938    2.0371  -14.5708 F   0  0  0  0  0  0  0  0  0  0  0  0
 30 31  1  0  0  0
 31 32  1  0  0  0
 31 33  1  0  0  0
 31 24  1  0  0  0
 24 25  2  0  0  0
 25 26  1  0  0  0
 26 27  2  0  0  0
 27 28  1  0  0  0
 28 29  2  0  0  0
 29  1  1  0  0  0
  1  2  2  0  0  0
  2  3  1  0  0  0
  3  4  2  0  0  0
  4  5  1  0  0  0
  5  6  1  0  0  0
  6  7  1  0  0  0
  7  8  1  0  0  0
  8  9  2  0  0  0
  9 10  1  0  0  0
 10 11  2  0  0  0
 11 12  1  0  0  0
 12 13  1  0  0  0
 13 15  1  0  0  0
 15 16  1  0  0  0
 16 17  1  0  0  0
 17 18  1  0  0  0
 18 19  1  0  0  0
 19 20  1  0  0  0
 20 21  1  0  0  0
 29 24  1  0  0  0
 13  1  1  0  0  0
 21 15  1  0  0  0
  7  3  1  0  0  0
 12  8  1  0  0  0
  4 14  1  0  0  0
 20 22  1  0  0  0
 20 23  1  0  0  0
M  CHG 1   4   1
M  CHG 1  20   1
M  END
> <minimizedAffinity>
-5.83747

$$$$
