24_1


 27 31  0  0  0  0  0  0  0  0999 V2000
   12.2863    7.8880   -9.8781 C   0  0  0  0  0  0  0  0  0  0  0  0
   13.3834    8.3010  -10.5381 N   0  0  0  0  0  0  0  0  0  0  0  0
   13.2569    8.1025  -11.8302 N   0  0  0  0  0  0  0  0  0  0  0  0
   12.0443    7.5435  -12.0302 C   0  0  0  0  0  0  0  0  0  0  0  0
   11.4317    7.1411  -13.2196 C   0  0  0  0  0  0  0  0  0  0  0  0
   10.1694    6.5920  -13.1306 C   0  0  0  0  0  0  0  0  0  0  0  0
    9.5266    6.4409  -11.9198 C   0  0  0  0  0  0  0  0  0  0  0  0
   10.1265    6.8369  -10.7375 C   0  0  0  0  0  0  0  0  0  0  0  0
   11.3927    7.3902  -10.8039 C   0  0  0  0  0  0  0  0  0  0  0  0
   13.9810    8.3432  -12.5557 H   0  0  0  0  0  0  0  0  0  0  0  0
   11.7840    8.8119   -4.0139 C   0  0  0  0  0  0  0  0  0  0  0  0
   11.1291    7.5849   -4.0257 C   0  0  0  0  0  0  0  0  0  0  0  0
   10.9593    6.8957   -5.1964 C   0  0  0  0  0  0  0  0  0  0  0  0
   11.4531    7.4487   -6.3602 C   0  0  0  0  0  0  0  0  0  0  0  0
   11.4371    7.0040   -7.6666 C   0  0  0  0  0  0  0  0  0  0  0  0
   12.0765    7.9541   -8.4360 C   0  0  0  0  0  0  0  0  0  0  0  0
   12.4642    8.9287   -7.6474 O   0  0  0  0  0  0  0  0  0  0  0  0
   12.1103    8.6634   -6.4007 C   0  0  0  0  0  0  0  0  0  0  0  0
   12.2704    9.3464   -5.1916 C   0  0  0  0  0  0  0  0  0  0  0  0
   12.4845    8.9880   -1.6644 C   0  0  0  0  0  0  0  0  0  0  0  0
   11.9692    9.5291   -2.8447 O   0  0  0  0  0  0  0  0  0  0  0  0
    8.1932    5.8585  -11.8466 C   0  0  0  0  0  0  0  0  0  0  0  0
    7.8867    4.5451  -12.0069 N   0  0  0  0  0  0  0  0  0  0  0  0
    6.5950    4.3822  -11.8759 N   0  0  0  0  0  0  0  0  0  0  0  0
    6.0527    5.5488  -11.6353 N   0  0  0  0  0  0  0  0  0  0  0  0
    7.0123    6.4591  -11.6141 N   0  0  0  0  0  0  0  0  0  0  0  0
    6.8825    7.4845  -11.4445 H   0  0  0  0  0  0  0  0  0  0  0  0
 20 21  1  0  0  0
 21 11  1  0  0  0
 11 12  2  0  0  0
 12 13  1  0  0  0
 13 14  2  0  0  0
 14 15  1  0  0  0
 15 16  2  0  0  0
 16  1  1  0  0  0
  1  2  2  0  0  0
  2  3  1  0  0  0
  3  4  1  0  0  0
  4  5  2  0  0  0
  5  6  1  0  0  0
  6  7  2  0  0  0
  7 22  1  0  0  0
 22 23  2  0  0  0
 23 24  1  0  0  0
 24 25  2  0  0  0
 25 26  1  0  0  0
  7  8  1  0  0  0
  8  9  2  0  0  0
 16 17  1  0  0  0
 17 18  1  0  0  0
 18 19  2  0  0  0
 19 11  1  0  0  0
 18 14  1  0  0  0
  9  1  1  0  0  0
  9  4  1  0  0  0
 26 22  1  0  0  0
  3 10  1  0  0  0
 26 27  1  0  0  0
M  END
> <minimizedAffinity>
-10.55675

$$$$
24_1


 27 31  0  0  0  0  0  0  0  0999 V2000
    6.9796    4.1908  -12.3445 C   0  0  0  0  0  0  0  0  0  0  0  0
    5.7552    4.4091  -11.8317 N   0  0  0  0  0  0  0  0  0  0  0  0
    4.9096    3.4840  -12.2243 N   0  0  0  0  0  0  0  0  0  0  0  0
    5.5926    2.6313  -13.0177 C   0  0  0  0  0  0  0  0  0  0  0  0
    5.1527    1.4847  -13.6836 C   0  0  0  0  0  0  0  0  0  0  0  0
    6.0781    0.7926  -14.4370 C   0  0  0  0  0  0  0  0  0  0  0  0
    7.3898    1.2068  -14.5365 C   0  0  0  0  0  0  0  0  0  0  0  0
    7.8332    2.3411  -13.8801 C   0  0  0  0  0  0  0  0  0  0  0  0
    6.9215    3.0504  -13.1189 C   0  0  0  0  0  0  0  0  0  0  0  0
    3.8924    3.4375  -11.9565 H   0  0  0  0  0  0  0  0  0  0  0  0
   11.5539    7.6564  -10.7444 C   0  0  0  0  0  0  0  0  0  0  0  0
   11.9876    7.4332  -12.0469 C   0  0  0  0  0  0  0  0  0  0  0  0
   11.2567    6.6523  -12.9016 C   0  0  0  0  0  0  0  0  0  0  0  0
   10.0828    6.0944  -12.4383 C   0  0  0  0  0  0  0  0  0  0  0  0
    9.1501    5.2802  -13.0481 C   0  0  0  0  0  0  0  0  0  0  0  0
    8.1627    5.0146  -12.1219 C   0  0  0  0  0  0  0  0  0  0  0  0
    8.4704    5.6307  -11.0048 O   0  0  0  0  0  0  0  0  0  0  0  0
    9.6098    6.2860  -11.1544 C   0  0  0  0  0  0  0  0  0  0  0  0
   10.3749    7.0875  -10.3021 C   0  0  0  0  0  0  0  0  0  0  0  0
   12.3335    8.2193   -8.4822 C   0  0  0  0  0  0  0  0  0  0  0  0
   12.2732    8.4415   -9.8600 O   0  0  0  0  0  0  0  0  0  0  0  0
    8.3522    0.4619  -15.3375 C   0  0  0  0  0  0  0  0  0  0  0  0
    8.1009   -0.1434  -16.5272 N   0  0  0  0  0  0  0  0  0  0  0  0
    9.1940   -0.7173  -16.9609 N   0  0  0  0  0  0  0  0  0  0  0  0
   10.1475   -0.5038  -16.0902 N   0  0  0  0  0  0  0  0  0  0  0  0
    9.6517    0.2130  -15.0951 N   0  0  0  0  0  0  0  0  0  0  0  0
   10.1788    0.5387  -14.2506 H   0  0  0  0  0  0  0  0  0  0  0  0
 20 21  1  0  0  0
 21 11  1  0  0  0
 11 12  2  0  0  0
 12 13  1  0  0  0
 13 14  2  0  0  0
 14 15  1  0  0  0
 15 16  2  0  0  0
 16  1  1  0  0  0
  1  2  2  0  0  0
  2  3  1  0  0  0
  3  4  1  0  0  0
  4  5  2  0  0  0
  5  6  1  0  0  0
  6  7  2  0  0  0
  7 22  1  0  0  0
 22 23  2  0  0  0
 23 24  1  0  0  0
 24 25  2  0  0  0
 25 26  1  0  0  0
  7  8  1  0  0  0
  8  9  2  0  0  0
 16 17  1  0  0  0
 17 18  1  0  0  0
 18 19  2  0  0  0
 19 11  1  0  0  0
 18 14  1  0  0  0
  9  1  1  0  0  0
  9  4  1  0  0  0
 26 22  1  0  0  0
  3 10  1  0  0  0
 26 27  1  0  0  0
M  END
> <minimizedAffinity>
-9.94683

$$$$
24_1


 27 31  0  0  0  0  0  0  0  0999 V2000
    8.8917    5.5070  -11.2078 C   0  0  0  0  0  0  0  0  0  0  0  0
    7.6763    4.9327  -11.1570 N   0  0  0  0  0  0  0  0  0  0  0  0
    7.3782    4.3619  -12.3017 N   0  0  0  0  0  0  0  0  0  0  0  0
    8.4239    4.5639  -13.1315 C   0  0  0  0  0  0  0  0  0  0  0  0
    8.6035    4.1592  -14.4565 C   0  0  0  0  0  0  0  0  0  0  0  0
    9.7873    4.5079  -15.0729 C   0  0  0  0  0  0  0  0  0  0  0  0
   10.7634    5.2280  -14.4167 C   0  0  0  0  0  0  0  0  0  0  0  0
   10.5931    5.6325  -13.1045 C   0  0  0  0  0  0  0  0  0  0  0  0
    9.4130    5.2934  -12.4673 C   0  0  0  0  0  0  0  0  0  0  0  0
    6.4830    3.8479  -12.5094 H   0  0  0  0  0  0  0  0  0  0  0  0
   11.2307    7.9746   -6.3155 C   0  0  0  0  0  0  0  0  0  0  0  0
   11.8249    8.8491   -7.2192 C   0  0  0  0  0  0  0  0  0  0  0  0
   11.6045    8.7187   -8.5642 C   0  0  0  0  0  0  0  0  0  0  0  0
   10.7805    7.7005   -8.9979 C   0  0  0  0  0  0  0  0  0  0  0  0
   10.3763    7.3222  -10.2621 C   0  0  0  0  0  0  0  0  0  0  0  0
    9.5457    6.2295  -10.1222 C   0  0  0  0  0  0  0  0  0  0  0  0
    9.4445    5.9509   -8.8439 O   0  0  0  0  0  0  0  0  0  0  0  0
   10.1675    6.8070   -8.1407 C   0  0  0  0  0  0  0  0  0  0  0  0
   10.4089    6.9623   -6.7726 C   0  0  0  0  0  0  0  0  0  0  0  0
   11.4755    6.9984   -4.0729 C   0  0  0  0  0  0  0  0  0  0  0  0
   11.4364    8.0841   -4.9511 O   0  0  0  0  0  0  0  0  0  0  0  0
   12.0073    5.5867  -15.0853 C   0  0  0  0  0  0  0  0  0  0  0  0
   12.9260    4.7173  -15.5803 N   0  0  0  0  0  0  0  0  0  0  0  0
   13.9156    5.3885  -16.1116 N   0  0  0  0  0  0  0  0  0  0  0  0
   13.6685    6.6667  -15.9774 N   0  0  0  0  0  0  0  0  0  0  0  0
   12.5099    6.8050  -15.3542 N   0  0  0  0  0  0  0  0  0  0  0  0
   12.0504    7.7129  -15.1062 H   0  0  0  0  0  0  0  0  0  0  0  0
 20 21  1  0  0  0
 21 11  1  0  0  0
 11 12  2  0  0  0
 12 13  1  0  0  0
 13 14  2  0  0  0
 14 15  1  0  0  0
 15 16  2  0  0  0
 16  1  1  0  0  0
  1  2  2  0  0  0
  2  3  1  0  0  0
  3  4  1  0  0  0
  4  5  2  0  0  0
  5  6  1  0  0  0
  6  7  2  0  0  0
  7 22  1  0  0  0
 22 23  2  0  0  0
 23 24  1  0  0  0
 24 25  2  0  0  0
 25 26  1  0  0  0
  7  8  1  0  0  0
  8  9  2  0  0  0
 16 17  1  0  0  0
 17 18  1  0  0  0
 18 19  2  0  0  0
 19 11  1  0  0  0
 18 14  1  0  0  0
  9  1  1  0  0  0
  9  4  1  0  0  0
 26 22  1  0  0  0
  3 10  1  0  0  0
 26 27  1  0  0  0
M  END
> <minimizedAffinity>
-9.59243

$$$$
24_1


 27 31  0  0  0  0  0  0  0  0999 V2000
    7.7756    4.6011  -12.4480 C   0  0  0  0  0  0  0  0  0  0  0  0
    7.2075    5.2671  -11.4265 N   0  0  0  0  0  0  0  0  0  0  0  0
    7.9430    6.2947  -11.0687 N   0  0  0  0  0  0  0  0  0  0  0  0
    9.0261    6.3088  -11.8746 C   0  0  0  0  0  0  0  0  0  0  0  0
   10.1062    7.1945  -11.9035 C   0  0  0  0  0  0  0  0  0  0  0  0
   11.0881    6.9693  -12.8458 C   0  0  0  0  0  0  0  0  0  0  0  0
   11.0174    5.9138  -13.7308 C   0  0  0  0  0  0  0  0  0  0  0  0
    9.9511    5.0324  -13.7086 C   0  0  0  0  0  0  0  0  0  0  0  0
    8.9550    5.2398  -12.7714 C   0  0  0  0  0  0  0  0  0  0  0  0
    7.7099    6.9683  -10.2937 H   0  0  0  0  0  0  0  0  0  0  0  0
    6.2213   -0.2712  -15.5040 C   0  0  0  0  0  0  0  0  0  0  0  0
    5.0571   -0.1956  -14.7466 C   0  0  0  0  0  0  0  0  0  0  0  0
    4.8866    0.8044  -13.8271 C   0  0  0  0  0  0  0  0  0  0  0  0
    5.8965    1.7317  -13.6720 C   0  0  0  0  0  0  0  0  0  0  0  0
    6.0152    2.8300  -12.8448 C   0  0  0  0  0  0  0  0  0  0  0  0
    7.2399    3.4116  -13.1007 C   0  0  0  0  0  0  0  0  0  0  0  0
    7.8411    2.7106  -14.0331 O   0  0  0  0  0  0  0  0  0  0  0  0
    7.0707    1.6997  -14.3997 C   0  0  0  0  0  0  0  0  0  0  0  0
    7.2194    0.6685  -15.3318 C   0  0  0  0  0  0  0  0  0  0  0  0
    5.4963   -1.6131  -17.4316 C   0  0  0  0  0  0  0  0  0  0  0  0
    6.4192   -1.2713  -16.4402 O   0  0  0  0  0  0  0  0  0  0  0  0
   12.0649    5.6928  -14.7189 C   0  0  0  0  0  0  0  0  0  0  0  0
   12.7071    6.6559  -15.4294 N   0  0  0  0  0  0  0  0  0  0  0  0
   13.5852    6.0968  -16.2223 N   0  0  0  0  0  0  0  0  0  0  0  0
   13.5336    4.8006  -16.0490 N   0  0  0  0  0  0  0  0  0  0  0  0
   12.6127    4.5374  -15.1366 N   0  0  0  0  0  0  0  0  0  0  0  0
   12.3464    3.5858  -14.7893 H   0  0  0  0  0  0  0  0  0  0  0  0
 20 21  1  0  0  0
 21 11  1  0  0  0
 11 12  2  0  0  0
 12 13  1  0  0  0
 13 14  2  0  0  0
 14 15  1  0  0  0
 15 16  2  0  0  0
 16  1  1  0  0  0
  1  2  2  0  0  0
  2  3  1  0  0  0
  3  4  1  0  0  0
  4  5  2  0  0  0
  5  6  1  0  0  0
  6  7  2  0  0  0
  7 22  1  0  0  0
 22 23  2  0  0  0
 23 24  1  0  0  0
 24 25  2  0  0  0
 25 26  1  0  0  0
  7  8  1  0  0  0
  8  9  2  0  0  0
 16 17  1  0  0  0
 17 18  1  0  0  0
 18 19  2  0  0  0
 19 11  1  0  0  0
 18 14  1  0  0  0
  9  1  1  0  0  0
  9  4  1  0  0  0
 26 22  1  0  0  0
  3 10  1  0  0  0
 26 27  1  0  0  0
M  END
> <minimizedAffinity>
-9.23520

$$$$
24_1


 27 31  0  0  0  0  0  0  0  0999 V2000
    7.5768    4.6202  -11.9235 C   0  0  0  0  0  0  0  0  0  0  0  0
    6.2712    4.4462  -11.6500 N   0  0  0  0  0  0  0  0  0  0  0  0
    5.7106    3.6441  -12.5259 N   0  0  0  0  0  0  0  0  0  0  0  0
    6.6706    3.2779  -13.4019 C   0  0  0  0  0  0  0  0  0  0  0  0
    6.5899    2.4388  -14.5160 C   0  0  0  0  0  0  0  0  0  0  0  0
    7.7437    2.2362  -15.2443 C   0  0  0  0  0  0  0  0  0  0  0  0
    8.9370    2.8334  -14.8959 C   0  0  0  0  0  0  0  0  0  0  0  0
    9.0252    3.6656  -13.7941 C   0  0  0  0  0  0  0  0  0  0  0  0
    7.8797    3.8826  -13.0494 C   0  0  0  0  0  0  0  0  0  0  0  0
    4.6982    3.3550  -12.5243 H   0  0  0  0  0  0  0  0  0  0  0  0
   11.1404    7.6294   -8.2166 C   0  0  0  0  0  0  0  0  0  0  0  0
   11.5690    8.2627   -9.3784 C   0  0  0  0  0  0  0  0  0  0  0  0
   11.0369    7.9254  -10.5940 C   0  0  0  0  0  0  0  0  0  0  0  0
   10.0680    6.9439  -10.6359 C   0  0  0  0  0  0  0  0  0  0  0  0
    9.3590    6.3982  -11.6868 C   0  0  0  0  0  0  0  0  0  0  0  0
    8.5105    5.4443  -11.1637 C   0  0  0  0  0  0  0  0  0  0  0  0
    8.6873    5.4052   -9.8640 O   0  0  0  0  0  0  0  0  0  0  0  0
    9.6091    6.2859   -9.5110 C   0  0  0  0  0  0  0  0  0  0  0  0
   10.1687    6.6493   -8.2826 C   0  0  0  0  0  0  0  0  0  0  0  0
   12.2195    9.1911   -6.6550 C   0  0  0  0  0  0  0  0  0  0  0  0
   11.6613    7.9512   -6.9753 O   0  0  0  0  0  0  0  0  0  0  0  0
   10.1451    2.6068  -15.6782 C   0  0  0  0  0  0  0  0  0  0  0  0
   10.4300    1.4925  -16.4006 N   0  0  0  0  0  0  0  0  0  0  0  0
   11.5977    1.6343  -16.9738 N   0  0  0  0  0  0  0  0  0  0  0  0
   12.0803    2.8060  -16.6463 N   0  0  0  0  0  0  0  0  0  0  0  0
   11.2079    3.4115  -15.8575 N   0  0  0  0  0  0  0  0  0  0  0  0
   11.3187    4.3638  -15.4359 H   0  0  0  0  0  0  0  0  0  0  0  0
 20 21  1  0  0  0
 21 11  1  0  0  0
 11 12  2  0  0  0
 12 13  1  0  0  0
 13 14  2  0  0  0
 14 15  1  0  0  0
 15 16  2  0  0  0
 16  1  1  0  0  0
  1  2  2  0  0  0
  2  3  1  0  0  0
  3  4  1  0  0  0
  4  5  2  0  0  0
  5  6  1  0  0  0
  6  7  2  0  0  0
  7 22  1  0  0  0
 22 23  2  0  0  0
 23 24  1  0  0  0
 24 25  2  0  0  0
 25 26  1  0  0  0
  7  8  1  0  0  0
  8  9  2  0  0  0
 16 17  1  0  0  0
 17 18  1  0  0  0
 18 19  2  0  0  0
 19 11  1  0  0  0
 18 14  1  0  0  0
  9  1  1  0  0  0
  9  4  1  0  0  0
 26 22  1  0  0  0
  3 10  1  0  0  0
 26 27  1  0  0  0
M  END
> <minimizedAffinity>
-9.18683

$$$$
24_1


 27 31  0  0  0  0  0  0  0  0999 V2000
    8.8819    4.9069  -12.6275 C   0  0  0  0  0  0  0  0  0  0  0  0
    7.7169    4.2524  -12.7828 N   0  0  0  0  0  0  0  0  0  0  0  0
    7.6510    3.6849  -13.9654 N   0  0  0  0  0  0  0  0  0  0  0  0
    8.8027    3.9714  -14.6092 C   0  0  0  0  0  0  0  0  0  0  0  0
    9.2252    3.6046  -15.8893 C   0  0  0  0  0  0  0  0  0  0  0  0
   10.4675    4.0425  -16.2987 C   0  0  0  0  0  0  0  0  0  0  0  0
   11.2707    4.8133  -15.4845 C   0  0  0  0  0  0  0  0  0  0  0  0
   10.8595    5.1807  -14.2156 C   0  0  0  0  0  0  0  0  0  0  0  0
    9.6167    4.7522  -13.7849 C   0  0  0  0  0  0  0  0  0  0  0  0
    6.8396    3.1166  -14.3222 H   0  0  0  0  0  0  0  0  0  0  0  0
   10.7928    8.4803   -8.2601 C   0  0  0  0  0  0  0  0  0  0  0  0
   10.3742    7.4456   -7.4303 C   0  0  0  0  0  0  0  0  0  0  0  0
    9.8219    6.3088   -7.9569 C   0  0  0  0  0  0  0  0  0  0  0  0
    9.6919    6.2172   -9.3275 C   0  0  0  0  0  0  0  0  0  0  0  0
    9.1853    5.2208  -10.1369 C   0  0  0  0  0  0  0  0  0  0  0  0
    9.2973    5.6506  -11.4432 C   0  0  0  0  0  0  0  0  0  0  0  0
    9.8422    6.8443  -11.4379 O   0  0  0  0  0  0  0  0  0  0  0  0
   10.0921    7.2167  -10.1934 C   0  0  0  0  0  0  0  0  0  0  0  0
   10.6529    8.3666   -9.6300 C   0  0  0  0  0  0  0  0  0  0  0  0
   11.3386    9.9959   -6.4034 C   0  0  0  0  0  0  0  0  0  0  0  0
   11.3544    9.6399   -7.7541 O   0  0  0  0  0  0  0  0  0  0  0  0
   12.5801    5.2662  -15.9353 C   0  0  0  0  0  0  0  0  0  0  0  0
   12.9293    6.5500  -16.2087 N   0  0  0  0  0  0  0  0  0  0  0  0
   14.1812    6.5873  -16.5877 N   0  0  0  0  0  0  0  0  0  0  0  0
   14.6561    5.3679  -16.5690 N   0  0  0  0  0  0  0  0  0  0  0  0
   13.6939    4.5508  -16.1739 N   0  0  0  0  0  0  0  0  0  0  0  0
   13.7770    3.5127  -16.0620 H   0  0  0  0  0  0  0  0  0  0  0  0
 20 21  1  0  0  0
 21 11  1  0  0  0
 11 12  2  0  0  0
 12 13  1  0  0  0
 13 14  2  0  0  0
 14 15  1  0  0  0
 15 16  2  0  0  0
 16  1  1  0  0  0
  1  2  2  0  0  0
  2  3  1  0  0  0
  3  4  1  0  0  0
  4  5  2  0  0  0
  5  6  1  0  0  0
  6  7  2  0  0  0
  7 22  1  0  0  0
 22 23  2  0  0  0
 23 24  1  0  0  0
 24 25  2  0  0  0
 25 26  1  0  0  0
  7  8  1  0  0  0
  8  9  2  0  0  0
 16 17  1  0  0  0
 17 18  1  0  0  0
 18 19  2  0  0  0
 19 11  1  0  0  0
 18 14  1  0  0  0
  9  1  1  0  0  0
  9  4  1  0  0  0
 26 22  1  0  0  0
  3 10  1  0  0  0
 26 27  1  0  0  0
M  END
> <minimizedAffinity>
-8.44108

$$$$
