12_0


 30 32  0  0  0  0  0  0  0  0999 V2000
    8.1939    4.0461  -14.0570 C   0  0  0  0  0  0  0  0  0  0  0  0
    7.4052    4.7268  -12.9673 C   0  0  0  0  0  0  0  0  0  0  0  0
    8.2116    4.7458  -11.7026 C   0  0  0  0  0  0  0  0  0  0  0  0
    9.4843    5.4819  -11.8956 C   0  0  0  0  0  0  0  0  0  0  0  0
    9.9803    6.2373  -10.9767 N   0  0  0  0  0  0  0  0  0  0  0  0
   10.8816    6.7196  -11.1964 H   0  0  0  0  0  0  0  0  0  0  0  0
   10.1379    5.3077  -13.1747 N   0  0  0  0  0  0  0  0  0  0  0  0
   11.4906    5.6072  -13.4907 C   0  0  0  0  0  0  0  0  0  0  0  0
   12.1083    6.6816  -13.1586 O   0  0  0  0  0  0  0  0  0  0  0  0
   12.1523    4.5457  -14.2594 C   0  0  0  0  0  0  0  0  0  0  0  0
   10.7399    3.6616  -14.9771 S   0  0  0  0  0  0  0  0  0  0  0  0
    9.4375    4.7957  -14.3315 C   0  0  0  0  0  0  0  0  0  0  0  0
    6.1085    4.0478  -12.7115 C   0  0  0  0  0  0  0  0  0  0  0  0
    5.1299    4.4172  -13.4065 O   0  0  0  0  0  0  0  0  0  0  0  0
    5.9204    3.0591  -11.7779 O   0  0  0  0  0  0  0  0  0  0  0  0
    8.4412    2.7268  -13.7386 O   0  0  0  0  0  0  0  0  0  0  0  0
    8.1460   -0.3680  -13.6363 H   0  0  0  0  0  0  0  0  0  0  0  0
    8.7014    0.3190  -14.1437 O   0  0  0  0  0  0  0  0  0  0  0  0
    8.1271    1.5595  -14.3399 C   0  0  0  0  0  0  0  0  0  0  0  0
    7.1296    1.5897  -15.2502 C   0  0  0  0  0  0  0  0  0  0  0  0
    6.6936    0.3739  -15.9816 C   0  0  0  0  0  0  0  0  0  0  0  0
    5.1951    0.1707  -15.9270 C   0  0  0  0  0  0  0  0  0  0  0  0
    4.7141   -0.0472  -14.5067 C   0  0  0  0  0  0  0  0  0  0  0  0
    3.3674   -0.6978  -14.4560 C   0  0  0  0  0  0  0  0  0  0  0  0
    9.4035    6.4693   -9.6880 C   0  0  0  0  0  0  0  0  0  0  0  0
   10.3402    7.1502   -8.7772 C   0  0  0  0  0  0  0  0  0  0  0  0
   11.3139    8.5873   -9.2477 S   0  0  0  0  0  0  0  0  0  0  0  0
   12.0998    8.6899   -7.5604 C   0  0  0  0  0  0  0  0  0  0  0  0
   11.5434    7.6427   -6.8502 C   0  0  0  0  0  0  0  0  0  0  0  0
   10.6538    6.8752   -7.4865 C   0  0  0  0  0  0  0  0  0  0  0  0
 17 18  1  0  0  0
 18 19  1  0  0  0
 19 16  1  0  0  0
 16  1  1  0  0  0
  1  2  1  0  0  0
  2 13  1  0  0  0
 13 14  2  0  0  0
 13 15  1  0  0  0
  2  3  1  0  0  0
  3  4  1  0  0  0
  4  5  2  0  0  0
  5  6  1  0  0  0
  5 25  1  0  0  0
 25 26  1  0  0  0
 26 27  1  0  0  0
 27 28  1  0  0  0
 28 29  2  0  0  0
 29 30  1  0  0  0
  4  7  1  0  0  0
  7  8  1  0  0  0
  8  9  2  0  0  0
  8 10  1  0  0  0
 10 11  1  0  0  0
 11 12  1  0  0  0
 19 20  2  0  0  0
 20 21  1  0  0  0
 21 22  1  0  0  0
 22 23  1  0  0  0
 23 24  1  0  0  0
 12  1  1  0  0  0
 30 26  2  0  0  0
 12  7  1  0  0  0
M  CHG 1   5   1
M  CHG 1  15  -1
M  END
> <minimizedAffinity>
-7.92392

$$$$
12_0


 30 32  0  0  0  0  0  0  0  0999 V2000
    9.1860    6.2133  -12.5870 C   0  0  0  0  0  0  0  0  0  0  0  0
    8.2792    6.2165  -11.3827 C   0  0  0  0  0  0  0  0  0  0  0  0
    9.0641    5.8318  -10.1636 C   0  0  0  0  0  0  0  0  0  0  0  0
   10.1729    6.7866   -9.9232 C   0  0  0  0  0  0  0  0  0  0  0  0
   10.5131    7.1499   -8.7344 N   0  0  0  0  0  0  0  0  0  0  0  0
   11.3061    7.8268   -8.6556 H   0  0  0  0  0  0  0  0  0  0  0  0
   10.8508    7.2906  -11.0980 N   0  0  0  0  0  0  0  0  0  0  0  0
   12.1219    7.9240  -11.1450 C   0  0  0  0  0  0  0  0  0  0  0  0
   12.5220    8.8421  -10.3429 O   0  0  0  0  0  0  0  0  0  0  0  0
   12.9762    7.4238  -12.2291 C   0  0  0  0  0  0  0  0  0  0  0  0
   11.7608    6.7027  -13.3667 S   0  0  0  0  0  0  0  0  0  0  0  0
   10.2640    7.2097  -12.4171 C   0  0  0  0  0  0  0  0  0  0  0  0
    7.1356    5.2815  -11.5444 C   0  0  0  0  0  0  0  0  0  0  0  0
    6.0585    5.7727  -11.9636 O   0  0  0  0  0  0  0  0  0  0  0  0
    7.1859    3.9378  -11.2680 O   0  0  0  0  0  0  0  0  0  0  0  0
    9.6803    4.9486  -12.8310 O   0  0  0  0  0  0  0  0  0  0  0  0
    7.9974    3.9639  -15.2545 H   0  0  0  0  0  0  0  0  0  0  0  0
    8.2178    3.6459  -14.3120 O   0  0  0  0  0  0  0  0  0  0  0  0
    9.4379    4.0349  -13.7948 C   0  0  0  0  0  0  0  0  0  0  0  0
   10.5102    3.4128  -14.3312 C   0  0  0  0  0  0  0  0  0  0  0  0
   10.3749    2.3867  -15.3952 C   0  0  0  0  0  0  0  0  0  0  0  0
   10.3907    0.9767  -14.8460 C   0  0  0  0  0  0  0  0  0  0  0  0
    9.1991    0.1765  -15.3319 C   0  0  0  0  0  0  0  0  0  0  0  0
    9.0213    0.2653  -16.8151 C   0  0  0  0  0  0  0  0  0  0  0  0
    9.8996    6.7063   -7.5203 C   0  0  0  0  0  0  0  0  0  0  0  0
   10.4901    7.3509   -6.3345 C   0  0  0  0  0  0  0  0  0  0  0  0
   10.5829    9.1339   -6.1169 S   0  0  0  0  0  0  0  0  0  0  0  0
   11.4147    8.9548   -4.4584 C   0  0  0  0  0  0  0  0  0  0  0  0
   11.5234    7.5904   -4.2661 C   0  0  0  0  0  0  0  0  0  0  0  0
   11.0482    6.7960   -5.2298 C   0  0  0  0  0  0  0  0  0  0  0  0
 17 18  1  0  0  0
 18 19  1  0  0  0
 19 16  1  0  0  0
 16  1  1  0  0  0
  1  2  1  0  0  0
  2 13  1  0  0  0
 13 14  2  0  0  0
 13 15  1  0  0  0
  2  3  1  0  0  0
  3  4  1  0  0  0
  4  5  2  0  0  0
  5  6  1  0  0  0
  5 25  1  0  0  0
 25 26  1  0  0  0
 26 27  1  0  0  0
 27 28  1  0  0  0
 28 29  2  0  0  0
 29 30  1  0  0  0
  4  7  1  0  0  0
  7  8  1  0  0  0
  8  9  2  0  0  0
  8 10  1  0  0  0
 10 11  1  0  0  0
 11 12  1  0  0  0
 19 20  2  0  0  0
 20 21  1  0  0  0
 21 22  1  0  0  0
 22 23  1  0  0  0
 23 24  1  0  0  0
 12  1  1  0  0  0
 30 26  2  0  0  0
 12  7  1  0  0  0
M  CHG 1   5   1
M  CHG 1  15  -1
M  END
> <minimizedAffinity>
-7.08062

$$$$
