12_1


 34 38  0  0  0  0  0  0  0  0999 V2000
    3.0967   -0.9216  -14.4241 C   0  0  0  0  0  0  0  0  0  0  0  0
    4.3000   -0.1865  -14.9197 C   0  0  0  0  0  0  0  0  0  0  0  0
    4.5274   -0.1873  -16.2469 N   0  0  0  0  0  0  0  0  0  0  0  0
    5.6023    0.4667  -16.7117 C   0  0  0  0  0  0  0  0  0  0  0  0
    5.8120    0.4474  -18.0748 C   0  0  0  0  0  0  0  0  0  0  0  0
    6.8884    1.1003  -18.5346 N   0  0  0  0  0  0  0  0  0  0  0  0
    7.7446    1.7589  -17.6906 C   0  0  0  0  0  0  0  0  0  0  0  0
    7.5034    1.7519  -16.3755 N   0  0  0  0  0  0  0  0  0  0  0  0
    6.4448    1.1197  -15.8362 C   0  0  0  0  0  0  0  0  0  0  0  0
    6.2530    1.1445  -14.5037 N   0  0  0  0  0  0  0  0  0  0  0  0
    5.1567    0.4757  -14.0444 C   0  0  0  0  0  0  0  0  0  0  0  0
    4.8736    0.4258  -12.8382 O   0  0  0  0  0  0  0  0  0  0  0  0
    8.8600    2.3702  -18.3184 N   0  0  0  0  0  0  0  0  0  0  0  0
    8.7440    3.6157  -18.8282 N   0  0  0  0  0  0  0  0  0  0  0  0
    9.9079    4.0145  -19.3643 C   0  0  0  0  0  0  0  0  0  0  0  0
   10.7762    2.9642  -19.1739 C   0  0  0  0  0  0  0  0  0  0  0  0
   12.1014    2.8706  -19.5392 C   0  0  0  0  0  0  0  0  0  0  0  0
   12.7462    1.6927  -19.2187 C   0  0  0  0  0  0  0  0  0  0  0  0
   12.0830    0.6797  -18.5700 C   0  0  0  0  0  0  0  0  0  0  0  0
   10.7347    0.7710  -18.1969 C   0  0  0  0  0  0  0  0  0  0  0  0
   10.1063    1.9411  -18.5181 C   0  0  0  0  0  0  0  0  0  0  0  0
    9.9482   -0.5569  -17.4017 S   0  0  0  0  0  0  0  0  0  0  0  0
    9.5857   -0.3051  -15.7596 N   0  0  0  0  0  0  0  0  0  0  0  0
    8.8304   -1.1640  -18.2059 O   0  0  0  0  0  0  0  0  0  0  0  0
   10.9902   -1.6929  -17.3910 O   0  0  0  0  0  0  0  0  0  0  0  0
    9.8465   -1.0950  -15.1188 H   0  0  0  0  0  0  0  0  0  0  0  0
   10.1095    0.5183  -15.3879 H   0  0  0  0  0  0  0  0  0  0  0  0
    7.1426    1.8304  -13.5850 C   0  0  0  0  0  0  0  0  0  0  0  0
    6.6475    3.1769  -13.1901 C   0  0  0  0  0  0  0  0  0  0  0  0
    7.4114    4.3649  -13.6215 C   0  0  0  0  0  0  0  0  0  0  0  0
    8.6612    4.1163  -14.2960 N   0  0  0  0  0  0  0  0  0  0  0  0
    9.5545    5.2643  -14.1074 C   0  0  0  0  0  0  0  0  0  0  0  0
    9.2661    2.9919  -13.6047 C   0  0  0  0  0  0  0  0  0  0  0  0
    8.5229    1.7783  -14.1254 C   0  0  0  0  0  0  0  0  0  0  0  0
  1  2  1  0  0  0
  2  3  2  0  0  0
  3  4  1  0  0  0
  4  5  2  0  0  0
  5  6  1  0  0  0
  6  7  2  0  0  0
  7 13  1  0  0  0
 13 14  1  0  0  0
 14 15  2  0  0  0
 15 16  1  0  0  0
 16 17  2  0  0  0
 17 18  1  0  0  0
 18 19  2  0  0  0
 19 20  1  0  0  0
 20 22  1  0  0  0
 22 23  1  0  0  0
 22 24  2  0  0  0
 22 25  2  0  0  0
 20 21  2  0  0  0
  7  8  1  0  0  0
  8  9  2  0  0  0
  9 10  1  0  0  0
 10 28  1  0  0  0
 28 29  1  0  0  0
 29 30  1  0  0  0
 30 31  1  0  0  0
 31 32  1  0  0  0
 31 33  1  0  0  0
 33 34  1  0  0  0
 10 11  1  0  0  0
 11 12  2  0  0  0
 11  2  1  0  0  0
  9  4  1  0  0  0
 34 28  1  0  0  0
 21 13  1  0  0  0
 21 16  1  0  0  0
 23 26  1  0  0  0
 23 27  1  0  0  0
M  END
> <minimizedAffinity>
-8.48999

$$$$
12_1


 34 38  0  0  0  0  0  0  0  0999 V2000
    4.0945    0.2103  -13.7331 C   0  0  0  0  0  0  0  0  0  0  0  0
    5.2166    0.0625  -14.7093 C   0  0  0  0  0  0  0  0  0  0  0  0
    6.4257    0.5288  -14.3436 N   0  0  0  0  0  0  0  0  0  0  0  0
    7.4459    0.4057  -15.2057 C   0  0  0  0  0  0  0  0  0  0  0  0
    8.6724    0.8940  -14.8059 C   0  0  0  0  0  0  0  0  0  0  0  0
    9.6883    0.7709  -15.6713 N   0  0  0  0  0  0  0  0  0  0  0  0
    9.5195    0.1862  -16.8996 C   0  0  0  0  0  0  0  0  0  0  0  0
    8.3130   -0.2738  -17.2467 N   0  0  0  0  0  0  0  0  0  0  0  0
    7.2434   -0.1876  -16.4345 C   0  0  0  0  0  0  0  0  0  0  0  0
    6.0514   -0.6662  -16.8380 N   0  0  0  0  0  0  0  0  0  0  0  0
    5.0227   -0.5347  -15.9520 C   0  0  0  0  0  0  0  0  0  0  0  0
    3.8778   -0.9361  -16.2084 O   0  0  0  0  0  0  0  0  0  0  0  0
   10.6756    0.1627  -17.7212 N   0  0  0  0  0  0  0  0  0  0  0  0
   11.3684   -0.9869  -17.8723 N   0  0  0  0  0  0  0  0  0  0  0  0
   12.4139   -0.8014  -18.6929 C   0  0  0  0  0  0  0  0  0  0  0  0
   12.3583    0.5233  -19.0609 C   0  0  0  0  0  0  0  0  0  0  0  0
   13.2046    1.2166  -19.8985 C   0  0  0  0  0  0  0  0  0  0  0  0
   12.9125    2.5504  -20.1018 C   0  0  0  0  0  0  0  0  0  0  0  0
   11.8303    3.1362  -19.4913 C   0  0  0  0  0  0  0  0  0  0  0  0
   10.9671    2.4345  -18.6382 C   0  0  0  0  0  0  0  0  0  0  0  0
   11.2650    1.1150  -18.4445 C   0  0  0  0  0  0  0  0  0  0  0  0
    9.6314    3.2414  -17.8773 S   0  0  0  0  0  0  0  0  0  0  0  0
    8.1100    2.5301  -18.1425 N   0  0  0  0  0  0  0  0  0  0  0  0
    9.9001    3.6363  -16.4502 O   0  0  0  0  0  0  0  0  0  0  0  0
    9.5378    4.6114  -18.5777 O   0  0  0  0  0  0  0  0  0  0  0  0
    7.3461    3.1980  -18.4129 H   0  0  0  0  0  0  0  0  0  0  0  0
    8.1537    1.8480  -18.9319 H   0  0  0  0  0  0  0  0  0  0  0  0
    5.8409   -1.2877  -18.1323 C   0  0  0  0  0  0  0  0  0  0  0  0
    4.7659   -0.6329  -18.9257 C   0  0  0  0  0  0  0  0  0  0  0  0
    3.5324   -1.3944  -19.2078 C   0  0  0  0  0  0  0  0  0  0  0  0
    3.5189   -2.7747  -18.7912 N   0  0  0  0  0  0  0  0  0  0  0  0
    2.5845   -3.5295  -19.6331 C   0  0  0  0  0  0  0  0  0  0  0  0
    4.8486   -3.2851  -19.0727 C   0  0  0  0  0  0  0  0  0  0  0  0
    5.7091   -2.7532  -17.9446 C   0  0  0  0  0  0  0  0  0  0  0  0
  1  2  1  0  0  0
  2  3  2  0  0  0
  3  4  1  0  0  0
  4  5  2  0  0  0
  5  6  1  0  0  0
  6  7  2  0  0  0
  7 13  1  0  0  0
 13 14  1  0  0  0
 14 15  2  0  0  0
 15 16  1  0  0  0
 16 17  2  0  0  0
 17 18  1  0  0  0
 18 19  2  0  0  0
 19 20  1  0  0  0
 20 22  1  0  0  0
 22 23  1  0  0  0
 22 24  2  0  0  0
 22 25  2  0  0  0
 20 21  2  0  0  0
  7  8  1  0  0  0
  8  9  2  0  0  0
  9 10  1  0  0  0
 10 28  1  0  0  0
 28 29  1  0  0  0
 29 30  1  0  0  0
 30 31  1  0  0  0
 31 32  1  0  0  0
 31 33  1  0  0  0
 33 34  1  0  0  0
 10 11  1  0  0  0
 11 12  2  0  0  0
 11  2  1  0  0  0
  9  4  1  0  0  0
 34 28  1  0  0  0
 21 13  1  0  0  0
 21 16  1  0  0  0
 23 26  1  0  0  0
 23 27  1  0  0  0
M  END
> <minimizedAffinity>
-7.79636

$$$$
12_1


 34 38  0  0  0  0  0  0  0  0999 V2000
    8.4437    6.0923  -10.9008 C   0  0  0  0  0  0  0  0  0  0  0  0
    8.5473    5.0300  -11.9470 C   0  0  0  0  0  0  0  0  0  0  0  0
    9.7754    4.7303  -12.4108 N   0  0  0  0  0  0  0  0  0  0  0  0
    9.8896    3.7797  -13.3501 C   0  0  0  0  0  0  0  0  0  0  0  0
   11.1590    3.4948  -13.8085 C   0  0  0  0  0  0  0  0  0  0  0  0
   11.2682    2.5459  -14.7486 N   0  0  0  0  0  0  0  0  0  0  0  0
   10.1696    1.8858  -15.2349 C   0  0  0  0  0  0  0  0  0  0  0  0
    8.9573    2.1937  -14.7623 N   0  0  0  0  0  0  0  0  0  0  0  0
    8.7645    3.1339  -13.8189 C   0  0  0  0  0  0  0  0  0  0  0  0
    7.5199    3.4037  -13.3819 N   0  0  0  0  0  0  0  0  0  0  0  0
    7.4178    4.3723  -12.4270 C   0  0  0  0  0  0  0  0  0  0  0  0
    6.3260    4.7099  -11.9460 O   0  0  0  0  0  0  0  0  0  0  0  0
   10.4376    0.9363  -16.2540 N   0  0  0  0  0  0  0  0  0  0  0  0
   10.2515   -0.3793  -16.0114 N   0  0  0  0  0  0  0  0  0  0  0  0
   10.5481   -1.1048  -17.1008 C   0  0  0  0  0  0  0  0  0  0  0  0
   10.9338   -0.1907  -18.0541 C   0  0  0  0  0  0  0  0  0  0  0  0
   11.3339   -0.4227  -19.3519 C   0  0  0  0  0  0  0  0  0  0  0  0
   11.6648    0.6883  -20.1017 C   0  0  0  0  0  0  0  0  0  0  0  0
   11.5925    1.9497  -19.5628 C   0  0  0  0  0  0  0  0  0  0  0  0
   11.1862    2.1900  -18.2427 C   0  0  0  0  0  0  0  0  0  0  0  0
   10.8603    1.0836  -17.5098 C   0  0  0  0  0  0  0  0  0  0  0  0
   11.1415    3.8079  -17.6147 S   0  0  0  0  0  0  0  0  0  0  0  0
    9.6537    4.2823  -16.9421 N   0  0  0  0  0  0  0  0  0  0  0  0
   12.3473    4.1670  -16.7889 O   0  0  0  0  0  0  0  0  0  0  0  0
   11.3109    4.7212  -18.8450 O   0  0  0  0  0  0  0  0  0  0  0  0
    9.3080    5.2266  -17.2445 H   0  0  0  0  0  0  0  0  0  0  0  0
    8.8944    3.6227  -17.2229 H   0  0  0  0  0  0  0  0  0  0  0  0
    6.3379    2.7243  -13.8788 C   0  0  0  0  0  0  0  0  0  0  0  0
    5.7398    1.7925  -12.8847 C   0  0  0  0  0  0  0  0  0  0  0  0
    5.7638    0.3438  -13.1707 C   0  0  0  0  0  0  0  0  0  0  0  0
    6.2617   -0.0482  -14.4658 N   0  0  0  0  0  0  0  0  0  0  0  0
    5.6776   -1.3398  -14.8427 C   0  0  0  0  0  0  0  0  0  0  0  0
    5.7486    0.9369  -15.4009 C   0  0  0  0  0  0  0  0  0  0  0  0
    6.6417    2.1461  -15.2106 C   0  0  0  0  0  0  0  0  0  0  0  0
  1  2  1  0  0  0
  2  3  2  0  0  0
  3  4  1  0  0  0
  4  5  2  0  0  0
  5  6  1  0  0  0
  6  7  2  0  0  0
  7 13  1  0  0  0
 13 14  1  0  0  0
 14 15  2  0  0  0
 15 16  1  0  0  0
 16 17  2  0  0  0
 17 18  1  0  0  0
 18 19  2  0  0  0
 19 20  1  0  0  0
 20 22  1  0  0  0
 22 23  1  0  0  0
 22 24  2  0  0  0
 22 25  2  0  0  0
 20 21  2  0  0  0
  7  8  1  0  0  0
  8  9  2  0  0  0
  9 10  1  0  0  0
 10 28  1  0  0  0
 28 29  1  0  0  0
 29 30  1  0  0  0
 30 31  1  0  0  0
 31 32  1  0  0  0
 31 33  1  0  0  0
 33 34  1  0  0  0
 10 11  1  0  0  0
 11 12  2  0  0  0
 11  2  1  0  0  0
  9  4  1  0  0  0
 34 28  1  0  0  0
 21 13  1  0  0  0
 21 16  1  0  0  0
 23 26  1  0  0  0
 23 27  1  0  0  0
M  END
> <minimizedAffinity>
-7.79309

$$$$
12_1


 34 38  0  0  0  0  0  0  0  0999 V2000
    9.7114    6.4500   -8.3205 C   0  0  0  0  0  0  0  0  0  0  0  0
   10.0229    6.5148   -9.7809 C   0  0  0  0  0  0  0  0  0  0  0  0
   11.1915    7.0766  -10.1441 N   0  0  0  0  0  0  0  0  0  0  0  0
   11.4895    7.1444  -11.4501 C   0  0  0  0  0  0  0  0  0  0  0  0
   12.6918    7.7269  -11.7936 C   0  0  0  0  0  0  0  0  0  0  0  0
   12.9845    7.7945  -13.0997 N   0  0  0  0  0  0  0  0  0  0  0  0
   12.1296    7.3074  -14.0542 C   0  0  0  0  0  0  0  0  0  0  0  0
   10.9741    6.7505  -13.6768 N   0  0  0  0  0  0  0  0  0  0  0  0
   10.6078    6.6451  -12.3861 C   0  0  0  0  0  0  0  0  0  0  0  0
    9.4305    6.0764  -12.0647 N   0  0  0  0  0  0  0  0  0  0  0  0
    9.1397    6.0139  -10.7336 C   0  0  0  0  0  0  0  0  0  0  0  0
    8.0861    5.5136  -10.3129 O   0  0  0  0  0  0  0  0  0  0  0  0
   12.5571    7.4851  -15.3950 N   0  0  0  0  0  0  0  0  0  0  0  0
   12.9271    8.7110  -15.8247 N   0  0  0  0  0  0  0  0  0  0  0  0
   13.3068    8.6635  -17.1110 C   0  0  0  0  0  0  0  0  0  0  0  0
   13.1622    7.3475  -17.4858 C   0  0  0  0  0  0  0  0  0  0  0  0
   13.4241    6.7709  -18.7094 C   0  0  0  0  0  0  0  0  0  0  0  0
   13.1935    5.4136  -18.8121 C   0  0  0  0  0  0  0  0  0  0  0  0
   12.7272    4.6945  -17.7387 C   0  0  0  0  0  0  0  0  0  0  0  0
   12.4592    5.2774  -16.4921 C   0  0  0  0  0  0  0  0  0  0  0  0
   12.6915    6.6210  -16.4013 C   0  0  0  0  0  0  0  0  0  0  0  0
   11.8461    4.3161  -15.1829 S   0  0  0  0  0  0  0  0  0  0  0  0
   12.7214    4.4300  -13.7296 N   0  0  0  0  0  0  0  0  0  0  0  0
   10.3518    4.3974  -15.0242 O   0  0  0  0  0  0  0  0  0  0  0  0
   12.0427    2.8544  -15.6314 O   0  0  0  0  0  0  0  0  0  0  0  0
   12.9397    3.5129  -13.2671 H   0  0  0  0  0  0  0  0  0  0  0  0
   13.6543    4.8697  -13.8939 H   0  0  0  0  0  0  0  0  0  0  0  0
    8.5039    5.5543  -13.0520 C   0  0  0  0  0  0  0  0  0  0  0  0
    7.1517    6.1690  -12.9650 C   0  0  0  0  0  0  0  0  0  0  0  0
    6.0140    5.3190  -12.5598 C   0  0  0  0  0  0  0  0  0  0  0  0
    6.2871    3.9126  -12.3979 N   0  0  0  0  0  0  0  0  0  0  0  0
    5.0543    3.1479  -12.6144 C   0  0  0  0  0  0  0  0  0  0  0  0
    7.1972    3.5608  -13.4730 C   0  0  0  0  0  0  0  0  0  0  0  0
    8.5476    4.0721  -13.0135 C   0  0  0  0  0  0  0  0  0  0  0  0
  1  2  1  0  0  0
  2  3  2  0  0  0
  3  4  1  0  0  0
  4  5  2  0  0  0
  5  6  1  0  0  0
  6  7  2  0  0  0
  7 13  1  0  0  0
 13 14  1  0  0  0
 14 15  2  0  0  0
 15 16  1  0  0  0
 16 17  2  0  0  0
 17 18  1  0  0  0
 18 19  2  0  0  0
 19 20  1  0  0  0
 20 22  1  0  0  0
 22 23  1  0  0  0
 22 24  2  0  0  0
 22 25  2  0  0  0
 20 21  2  0  0  0
  7  8  1  0  0  0
  8  9  2  0  0  0
  9 10  1  0  0  0
 10 28  1  0  0  0
 28 29  1  0  0  0
 29 30  1  0  0  0
 30 31  1  0  0  0
 31 32  1  0  0  0
 31 33  1  0  0  0
 33 34  1  0  0  0
 10 11  1  0  0  0
 11 12  2  0  0  0
 11  2  1  0  0  0
  9  4  1  0  0  0
 34 28  1  0  0  0
 21 13  1  0  0  0
 21 16  1  0  0  0
 23 26  1  0  0  0
 23 27  1  0  0  0
M  END
> <minimizedAffinity>
-6.88408

$$$$
12_1


 34 38  0  0  0  0  0  0  0  0999 V2000
   12.5607    8.2321   -9.7971 C   0  0  0  0  0  0  0  0  0  0  0  0
   11.8094    7.6063  -10.9276 C   0  0  0  0  0  0  0  0  0  0  0  0
   12.4924    7.3389  -12.0568 N   0  0  0  0  0  0  0  0  0  0  0  0
   11.8361    6.7774  -13.0830 C   0  0  0  0  0  0  0  0  0  0  0  0
   12.5598    6.5166  -14.2279 C   0  0  0  0  0  0  0  0  0  0  0  0
   11.8995    5.9575  -15.2515 N   0  0  0  0  0  0  0  0  0  0  0  0
   10.5647    5.6570  -15.1677 C   0  0  0  0  0  0  0  0  0  0  0  0
    9.9015    5.9269  -14.0385 N   0  0  0  0  0  0  0  0  0  0  0  0
   10.4925    6.4872  -12.9671 C   0  0  0  0  0  0  0  0  0  0  0  0
    9.7740    6.7386  -11.8566 N   0  0  0  0  0  0  0  0  0  0  0  0
   10.4532    7.3096  -10.8208 C   0  0  0  0  0  0  0  0  0  0  0  0
    9.9013    7.5890   -9.7461 O   0  0  0  0  0  0  0  0  0  0  0  0
    9.9949    5.1055  -16.3437 N   0  0  0  0  0  0  0  0  0  0  0  0
    9.6458    5.9176  -17.3650 N   0  0  0  0  0  0  0  0  0  0  0  0
    9.1396    5.2030  -18.3820 C   0  0  0  0  0  0  0  0  0  0  0  0
    9.1807    3.8929  -17.9634 C   0  0  0  0  0  0  0  0  0  0  0  0
    8.7796    2.7631  -18.6424 C   0  0  0  0  0  0  0  0  0  0  0  0
    8.9385    1.5604  -17.9835 C   0  0  0  0  0  0  0  0  0  0  0  0
    9.4701    1.5147  -16.7177 C   0  0  0  0  0  0  0  0  0  0  0  0
    9.8791    2.6619  -16.0234 C   0  0  0  0  0  0  0  0  0  0  0  0
    9.7181    3.8468  -16.6850 C   0  0  0  0  0  0  0  0  0  0  0  0
   10.5195    2.5372  -14.4145 S   0  0  0  0  0  0  0  0  0  0  0  0
   12.0362    3.2693  -14.1806 N   0  0  0  0  0  0  0  0  0  0  0  0
    9.5081    2.8300  -13.3393 O   0  0  0  0  0  0  0  0  0  0  0  0
   10.7865    1.0337  -14.2039 O   0  0  0  0  0  0  0  0  0  0  0  0
   12.7392    2.6843  -13.6645 H   0  0  0  0  0  0  0  0  0  0  0  0
   12.4908    3.4780  -15.0972 H   0  0  0  0  0  0  0  0  0  0  0  0
    8.3600    6.4344  -11.7386 C   0  0  0  0  0  0  0  0  0  0  0  0
    8.0977    5.1336  -11.0653 C   0  0  0  0  0  0  0  0  0  0  0  0
    7.4906    4.0409  -11.8518 C   0  0  0  0  0  0  0  0  0  0  0  0
    7.0812    4.3658  -13.1955 N   0  0  0  0  0  0  0  0  0  0  0  0
    5.9992    3.4651  -13.6073 C   0  0  0  0  0  0  0  0  0  0  0  0
    6.5157    5.7010  -13.1240 C   0  0  0  0  0  0  0  0  0  0  0  0
    7.7172    6.6223  -13.0621 C   0  0  0  0  0  0  0  0  0  0  0  0
  1  2  1  0  0  0
  2  3  2  0  0  0
  3  4  1  0  0  0
  4  5  2  0  0  0
  5  6  1  0  0  0
  6  7  2  0  0  0
  7 13  1  0  0  0
 13 14  1  0  0  0
 14 15  2  0  0  0
 15 16  1  0  0  0
 16 17  2  0  0  0
 17 18  1  0  0  0
 18 19  2  0  0  0
 19 20  1  0  0  0
 20 22  1  0  0  0
 22 23  1  0  0  0
 22 24  2  0  0  0
 22 25  2  0  0  0
 20 21  2  0  0  0
  7  8  1  0  0  0
  8  9  2  0  0  0
  9 10  1  0  0  0
 10 28  1  0  0  0
 28 29  1  0  0  0
 29 30  1  0  0  0
 30 31  1  0  0  0
 31 32  1  0  0  0
 31 33  1  0  0  0
 33 34  1  0  0  0
 10 11  1  0  0  0
 11 12  2  0  0  0
 11  2  1  0  0  0
  9  4  1  0  0  0
 34 28  1  0  0  0
 21 13  1  0  0  0
 21 16  1  0  0  0
 23 26  1  0  0  0
 23 27  1  0  0  0
M  END
> <minimizedAffinity>
-5.62863

$$$$
