5_0


 26 29  0  0  0  0  0  0  0  0999 V2000
    7.1563    4.4004  -12.3686 C   0  0  0  0  0  0  0  0  0  0  0  0
    7.9909    4.5468  -13.4609 C   0  0  0  0  0  0  0  0  0  0  0  0
    9.0825    5.2864  -13.0555 C   0  0  0  0  0  0  0  0  0  0  0  0
    8.9043    5.5845  -11.7201 C   0  0  0  0  0  0  0  0  0  0  0  0
    7.7411    5.0429  -11.3270 N   0  0  0  0  0  0  0  0  0  0  0  0
    9.8492    6.3182  -11.0562 C   0  0  0  0  0  0  0  0  0  0  0  0
   11.0045    6.7815  -11.6965 C   0  0  0  0  0  0  0  0  0  0  0  0
   11.1626    6.4719  -13.0323 C   0  0  0  0  0  0  0  0  0  0  0  0
   12.2735    6.8874  -13.7478 C   0  0  0  0  0  0  0  0  0  0  0  0
   12.4388    6.5798  -15.0903 C   0  0  0  0  0  0  0  0  0  0  0  0
   13.5533    7.0115  -15.7589 O   0  0  0  0  0  0  0  0  0  0  0  0
   11.4536    5.8320  -15.7250 C   0  0  0  0  0  0  0  0  0  0  0  0
   10.3383    5.4020  -15.0493 C   0  0  0  0  0  0  0  0  0  0  0  0
   10.1991    5.7217  -13.7156 C   0  0  0  0  0  0  0  0  0  0  0  0
   11.7817    7.4922  -10.7921 O   0  0  0  0  0  0  0  0  0  0  0  0
   10.8629    7.9584   -9.7957 C   0  0  0  0  0  0  0  0  0  0  0  0
    9.9447    6.7981   -9.6315 C   0  0  0  0  0  0  0  0  0  0  0  0
    7.3733    5.1264  -10.3509 H   0  0  0  0  0  0  0  0  0  0  0  0
   11.5956    8.3470   -8.5454 C   0  0  0  0  0  0  0  0  0  0  0  0
   11.0804    9.5811   -7.8967 C   0  0  0  0  0  0  0  0  0  0  0  0
   11.4397    7.1929   -7.5505 C   0  0  0  0  0  0  0  0  0  0  0  0
   12.9563    8.4011   -8.8343 O   0  0  0  0  0  0  0  0  0  0  0  0
   13.2078    9.2350   -9.2971 H   0  0  0  0  0  0  0  0  0  0  0  0
    5.7242    2.4258  -13.0482 C   0  0  0  0  0  0  0  0  0  0  0  0
    5.8801    3.6948  -12.3104 C   0  0  0  0  0  0  0  0  0  0  0  0
    4.9685    4.2155  -11.6234 O   0  0  0  0  0  0  0  0  0  0  0  0
 24 25  1  0  0  0
 25 26  2  0  0  0
 25  1  1  0  0  0
  1  2  2  0  0  0
  2  3  1  0  0  0
  3  4  2  0  0  0
  4  5  1  0  0  0
  4  6  1  0  0  0
  6  7  2  0  0  0
  7  8  1  0  0  0
  8  9  2  0  0  0
  9 10  1  0  0  0
 10 11  1  0  0  0
 10 12  2  0  0  0
 12 13  1  0  0  0
 13 14  2  0  0  0
  7 15  1  0  0  0
 15 16  1  0  0  0
 16 19  1  0  0  0
 19 20  1  0  0  0
 19 21  1  0  0  0
 19 22  1  0  0  0
 16 17  1  0  0  0
  5  1  1  0  0  0
 17  6  1  0  0  0
 14  3  1  0  0  0
 14  8  1  0  0  0
  5 18  1  0  0  0
 22 23  1  0  0  0
M  CHG 1  11  -1
M  END
> <minimizedAffinity>
-9.44752

$$$$
5_0


 26 29  0  0  0  0  0  0  0  0999 V2000
    9.8314    4.7512  -13.4464 C   0  0  0  0  0  0  0  0  0  0  0  0
    8.5701    4.3348  -13.0627 C   0  0  0  0  0  0  0  0  0  0  0  0
    8.2849    3.1762  -13.7551 C   0  0  0  0  0  0  0  0  0  0  0  0
    9.3742    2.8961  -14.5544 C   0  0  0  0  0  0  0  0  0  0  0  0
   10.2919    3.8544  -14.3538 N   0  0  0  0  0  0  0  0  0  0  0  0
    9.3601    1.7883  -15.3574 C   0  0  0  0  0  0  0  0  0  0  0  0
    8.2627    0.9202  -15.3940 C   0  0  0  0  0  0  0  0  0  0  0  0
    7.1840    1.2193  -14.5864 C   0  0  0  0  0  0  0  0  0  0  0  0
    6.0546    0.4180  -14.5565 C   0  0  0  0  0  0  0  0  0  0  0  0
    4.9670    0.7126  -13.7474 C   0  0  0  0  0  0  0  0  0  0  0  0
    3.8705   -0.1079  -13.7495 O   0  0  0  0  0  0  0  0  0  0  0  0
    5.0244    1.8484  -12.9476 C   0  0  0  0  0  0  0  0  0  0  0  0
    6.1267    2.6671  -12.9499 C   0  0  0  0  0  0  0  0  0  0  0  0
    7.1936    2.3510  -13.7634 C   0  0  0  0  0  0  0  0  0  0  0  0
    8.5177   -0.1109  -16.2877 O   0  0  0  0  0  0  0  0  0  0  0  0
    9.4788    0.4217  -17.2080 C   0  0  0  0  0  0  0  0  0  0  0  0
   10.3686    1.2218  -16.3223 C   0  0  0  0  0  0  0  0  0  0  0  0
   11.2157    3.8722  -14.8451 H   0  0  0  0  0  0  0  0  0  0  0  0
   10.1742   -0.6866  -17.9423 C   0  0  0  0  0  0  0  0  0  0  0  0
    9.4567   -1.1565  -19.1562 C   0  0  0  0  0  0  0  0  0  0  0  0
   11.5410   -0.1528  -18.3813 C   0  0  0  0  0  0  0  0  0  0  0  0
   10.4523   -1.7055  -17.0354 O   0  0  0  0  0  0  0  0  0  0  0  0
    9.6616   -2.2638  -16.8456 H   0  0  0  0  0  0  0  0  0  0  0  0
    9.8698    6.9136  -12.1295 C   0  0  0  0  0  0  0  0  0  0  0  0
   10.5606    5.9275  -12.9835 C   0  0  0  0  0  0  0  0  0  0  0  0
   11.7574    6.0380  -13.3438 O   0  0  0  0  0  0  0  0  0  0  0  0
 24 25  1  0  0  0
 25 26  2  0  0  0
 25  1  1  0  0  0
  1  2  2  0  0  0
  2  3  1  0  0  0
  3  4  2  0  0  0
  4  5  1  0  0  0
  4  6  1  0  0  0
  6  7  2  0  0  0
  7  8  1  0  0  0
  8  9  2  0  0  0
  9 10  1  0  0  0
 10 11  1  0  0  0
 10 12  2  0  0  0
 12 13  1  0  0  0
 13 14  2  0  0  0
  7 15  1  0  0  0
 15 16  1  0  0  0
 16 19  1  0  0  0
 19 20  1  0  0  0
 19 21  1  0  0  0
 19 22  1  0  0  0
 16 17  1  0  0  0
  5  1  1  0  0  0
 17  6  1  0  0  0
 14  3  1  0  0  0
 14  8  1  0  0  0
  5 18  1  0  0  0
 22 23  1  0  0  0
M  CHG 1  11  -1
M  END
> <minimizedAffinity>
-8.98806

$$$$
5_0


 26 29  0  0  0  0  0  0  0  0999 V2000
    9.0476    6.3665  -12.3137 C   0  0  0  0  0  0  0  0  0  0  0  0
    7.9118    5.6150  -12.0762 C   0  0  0  0  0  0  0  0  0  0  0  0
    7.9236    4.5524  -12.9558 C   0  0  0  0  0  0  0  0  0  0  0  0
    9.0658    4.6650  -13.7216 C   0  0  0  0  0  0  0  0  0  0  0  0
    9.7269    5.7615  -13.3197 N   0  0  0  0  0  0  0  0  0  0  0  0
    9.3314    3.7315  -14.6861 C   0  0  0  0  0  0  0  0  0  0  0  0
    8.4708    2.6534  -14.9232 C   0  0  0  0  0  0  0  0  0  0  0  0
    7.3341    2.5600  -14.1457 C   0  0  0  0  0  0  0  0  0  0  0  0
    6.4252    1.5277  -14.3088 C   0  0  0  0  0  0  0  0  0  0  0  0
    5.2809    1.4277  -13.5310 C   0  0  0  0  0  0  0  0  0  0  0  0
    4.4092    0.3898  -13.7267 O   0  0  0  0  0  0  0  0  0  0  0  0
    5.0509    2.3985  -12.5627 C   0  0  0  0  0  0  0  0  0  0  0  0
    5.9287    3.4368  -12.3713 C   0  0  0  0  0  0  0  0  0  0  0  0
    7.0581    3.5121  -13.1581 C   0  0  0  0  0  0  0  0  0  0  0  0
    8.9818    1.8700  -15.9490 O   0  0  0  0  0  0  0  0  0  0  0  0
    9.8106    2.7530  -16.7157 C   0  0  0  0  0  0  0  0  0  0  0  0
   10.4665    3.5782  -15.6645 C   0  0  0  0  0  0  0  0  0  0  0  0
   10.6313    6.0712  -13.7455 H   0  0  0  0  0  0  0  0  0  0  0  0
   10.7641    1.9702  -17.5696 C   0  0  0  0  0  0  0  0  0  0  0  0
   12.1766    2.4235  -17.4774 C   0  0  0  0  0  0  0  0  0  0  0  0
   10.7060    0.5143  -17.0977 C   0  0  0  0  0  0  0  0  0  0  0  0
   10.2729    1.9536  -18.8721 O   0  0  0  0  0  0  0  0  0  0  0  0
   10.4587    2.7945  -19.3530 H   0  0  0  0  0  0  0  0  0  0  0  0
   10.6361    7.5402  -10.7290 C   0  0  0  0  0  0  0  0  0  0  0  0
    9.4683    7.5858  -11.6307 C   0  0  0  0  0  0  0  0  0  0  0  0
    8.8014    8.6253  -11.8517 O   0  0  0  0  0  0  0  0  0  0  0  0
 24 25  1  0  0  0
 25 26  2  0  0  0
 25  1  1  0  0  0
  1  2  2  0  0  0
  2  3  1  0  0  0
  3  4  2  0  0  0
  4  5  1  0  0  0
  4  6  1  0  0  0
  6  7  2  0  0  0
  7  8  1  0  0  0
  8  9  2  0  0  0
  9 10  1  0  0  0
 10 11  1  0  0  0
 10 12  2  0  0  0
 12 13  1  0  0  0
 13 14  2  0  0  0
  7 15  1  0  0  0
 15 16  1  0  0  0
 16 19  1  0  0  0
 19 20  1  0  0  0
 19 21  1  0  0  0
 19 22  1  0  0  0
 16 17  1  0  0  0
  5  1  1  0  0  0
 17  6  1  0  0  0
 14  3  1  0  0  0
 14  8  1  0  0  0
  5 18  1  0  0  0
 22 23  1  0  0  0
M  CHG 1  11  -1
M  END
> <minimizedAffinity>
-8.60904

$$$$
5_0


 26 29  0  0  0  0  0  0  0  0999 V2000
   11.2307    7.6852  -10.1860 C   0  0  0  0  0  0  0  0  0  0  0  0
   10.0598    6.9584  -10.2960 C   0  0  0  0  0  0  0  0  0  0  0  0
   10.0449    6.3787  -11.5477 C   0  0  0  0  0  0  0  0  0  0  0  0
   11.2062    6.7567  -12.1898 C   0  0  0  0  0  0  0  0  0  0  0  0
   11.9043    7.5413  -11.3543 N   0  0  0  0  0  0  0  0  0  0  0  0
   11.4521    6.3182  -13.4623 C   0  0  0  0  0  0  0  0  0  0  0  0
   10.5521    5.4886  -14.1412 C   0  0  0  0  0  0  0  0  0  0  0  0
    9.3969    5.1226  -13.4803 C   0  0  0  0  0  0  0  0  0  0  0  0
    8.4490    4.3046  -14.0727 C   0  0  0  0  0  0  0  0  0  0  0  0
    7.2860    3.9330  -13.4144 C   0  0  0  0  0  0  0  0  0  0  0  0
    6.3757    3.1222  -14.0386 O   0  0  0  0  0  0  0  0  0  0  0  0
    7.0771    4.4018  -12.1223 C   0  0  0  0  0  0  0  0  0  0  0  0
    7.9936    5.2144  -11.5018 C   0  0  0  0  0  0  0  0  0  0  0  0
    9.1410    5.5684  -12.1789 C   0  0  0  0  0  0  0  0  0  0  0  0
   11.0506    5.2003  -15.4043 O   0  0  0  0  0  0  0  0  0  0  0  0
   11.9311    6.2876  -15.7154 C   0  0  0  0  0  0  0  0  0  0  0  0
   12.5994    6.5483  -14.4108 C   0  0  0  0  0  0  0  0  0  0  0  0
   12.8294    7.9616  -11.6048 H   0  0  0  0  0  0  0  0  0  0  0  0
   12.8682    5.9052  -16.8229 C   0  0  0  0  0  0  0  0  0  0  0  0
   12.1913    5.5529  -18.0985 C   0  0  0  0  0  0  0  0  0  0  0  0
   13.7733    7.1118  -17.0889 C   0  0  0  0  0  0  0  0  0  0  0  0
   13.7167    4.9066  -16.3532 O   0  0  0  0  0  0  0  0  0  0  0  0
   13.2848    4.0198  -16.3489 H   0  0  0  0  0  0  0  0  0  0  0  0
   10.7008    9.2230   -8.2453 C   0  0  0  0  0  0  0  0  0  0  0  0
   11.6880    8.4705   -9.0440 C   0  0  0  0  0  0  0  0  0  0  0  0
   12.9187    8.4626   -8.7995 O   0  0  0  0  0  0  0  0  0  0  0  0
 24 25  1  0  0  0
 25 26  2  0  0  0
 25  1  1  0  0  0
  1  2  2  0  0  0
  2  3  1  0  0  0
  3  4  2  0  0  0
  4  5  1  0  0  0
  4  6  1  0  0  0
  6  7  2  0  0  0
  7  8  1  0  0  0
  8  9  2  0  0  0
  9 10  1  0  0  0
 10 11  1  0  0  0
 10 12  2  0  0  0
 12 13  1  0  0  0
 13 14  2  0  0  0
  7 15  1  0  0  0
 15 16  1  0  0  0
 16 19  1  0  0  0
 19 20  1  0  0  0
 19 21  1  0  0  0
 19 22  1  0  0  0
 16 17  1  0  0  0
  5  1  1  0  0  0
 17  6  1  0  0  0
 14  3  1  0  0  0
 14  8  1  0  0  0
  5 18  1  0  0  0
 22 23  1  0  0  0
M  CHG 1  11  -1
M  END
> <minimizedAffinity>
-8.58274

$$$$
5_0


 26 29  0  0  0  0  0  0  0  0999 V2000
   10.6958    6.8840  -11.6862 C   0  0  0  0  0  0  0  0  0  0  0  0
    9.5845    6.0753  -11.8361 C   0  0  0  0  0  0  0  0  0  0  0  0
    9.7660    5.3251  -12.9795 C   0  0  0  0  0  0  0  0  0  0  0  0
   10.9856    5.6826  -13.5167 C   0  0  0  0  0  0  0  0  0  0  0  0
   11.5277    6.6203  -12.7244 N   0  0  0  0  0  0  0  0  0  0  0  0
   11.4215    5.0857  -14.6681 C   0  0  0  0  0  0  0  0  0  0  0  0
   10.6603    4.1125  -15.3259 C   0  0  0  0  0  0  0  0  0  0  0  0
    9.4436    3.7701  -14.7713 C   0  0  0  0  0  0  0  0  0  0  0  0
    8.6228    2.8175  -15.3522 C   0  0  0  0  0  0  0  0  0  0  0  0
    7.3989    2.4686  -14.8002 C   0  0  0  0  0  0  0  0  0  0  0  0
    6.6192    1.5211  -15.4085 O   0  0  0  0  0  0  0  0  0  0  0  0
    6.9956    3.1006  -13.6294 C   0  0  0  0  0  0  0  0  0  0  0  0
    7.7818    4.0497  -13.0242 C   0  0  0  0  0  0  0  0  0  0  0  0
    8.9935    4.3776  -13.5939 C   0  0  0  0  0  0  0  0  0  0  0  0
   11.3383    3.6816  -16.4581 O   0  0  0  0  0  0  0  0  0  0  0  0
   12.2031    4.7685  -16.8117 C   0  0  0  0  0  0  0  0  0  0  0  0
   12.6756    5.2529  -15.4856 C   0  0  0  0  0  0  0  0  0  0  0  0
   12.4584    7.0596  -12.9140 H   0  0  0  0  0  0  0  0  0  0  0  0
   13.2983    4.2947  -17.7213 C   0  0  0  0  0  0  0  0  0  0  0  0
   13.1278    2.8991  -18.2034 C   0  0  0  0  0  0  0  0  0  0  0  0
   13.3038    5.2170  -18.9440 C   0  0  0  0  0  0  0  0  0  0  0  0
   14.5187    4.5159  -17.0892 O   0  0  0  0  0  0  0  0  0  0  0  0
   14.7195    3.8279  -16.4116 H   0  0  0  0  0  0  0  0  0  0  0  0
   12.3462    8.0622  -10.1698 C   0  0  0  0  0  0  0  0  0  0  0  0
   10.9580    7.8502  -10.6244 C   0  0  0  0  0  0  0  0  0  0  0  0
    9.9701    8.4592  -10.1473 O   0  0  0  0  0  0  0  0  0  0  0  0
 24 25  1  0  0  0
 25 26  2  0  0  0
 25  1  1  0  0  0
  1  2  2  0  0  0
  2  3  1  0  0  0
  3  4  2  0  0  0
  4  5  1  0  0  0
  4  6  1  0  0  0
  6  7  2  0  0  0
  7  8  1  0  0  0
  8  9  2  0  0  0
  9 10  1  0  0  0
 10 11  1  0  0  0
 10 12  2  0  0  0
 12 13  1  0  0  0
 13 14  2  0  0  0
  7 15  1  0  0  0
 15 16  1  0  0  0
 16 19  1  0  0  0
 19 20  1  0  0  0
 19 21  1  0  0  0
 19 22  1  0  0  0
 16 17  1  0  0  0
  5  1  1  0  0  0
 17  6  1  0  0  0
 14  3  1  0  0  0
 14  8  1  0  0  0
  5 18  1  0  0  0
 22 23  1  0  0  0
M  CHG 1  11  -1
M  END
> <minimizedAffinity>
-7.67737

$$$$
