5_1


 43 48  0  0  0  0  0  0  0  0999 V2000
    3.1765   -1.1967  -15.1473 C   0  0  0  0  0  0  0  0  0  0  0  0
    4.3366   -0.3042  -15.0925 N   0  0  0  0  0  0  0  0  0  0  0  0
    5.2608   -0.4401  -16.0587 C   0  0  0  0  0  0  0  0  0  0  0  0
    6.3822    0.3874  -16.0478 C   0  0  0  0  0  0  0  0  0  0  0  0
    6.5251    1.3290  -15.0496 C   0  0  0  0  0  0  0  0  0  0  0  0
    5.5474    1.4259  -14.0832 C   0  0  0  0  0  0  0  0  0  0  0  0
    4.4376    0.6023  -14.0997 C   0  0  0  0  0  0  0  0  0  0  0  0
    5.4629    2.3012  -12.9662 N   0  0  0  0  0  0  0  0  0  0  0  0
    6.3130    3.2070  -12.6198 C   0  0  0  0  0  0  0  0  0  0  0  0
    5.9548    3.9056  -11.4770 O   0  0  0  0  0  0  0  0  0  0  0  0
    7.5789    3.5813  -13.2666 C   0  0  0  0  0  0  0  0  0  0  0  0
    8.1220    4.5143  -12.5699 N   0  0  0  0  0  0  0  0  0  0  0  0
    9.3686    5.0453  -13.0015 C   0  0  0  0  0  0  0  0  0  0  0  0
   10.0273    4.6079  -14.1403 C   0  0  0  0  0  0  0  0  0  0  0  0
   11.1636    5.3182  -14.1818 N   0  0  0  0  0  0  0  0  0  0  0  0
   11.2413    6.1686  -13.1402 C   0  0  0  0  0  0  0  0  0  0  0  0
   12.1997    7.0837  -12.7675 C   0  0  0  0  0  0  0  0  0  0  0  0
   11.9943    7.8289  -11.6213 C   0  0  0  0  0  0  0  0  0  0  0  0
   10.8723    7.7007  -10.8291 C   0  0  0  0  0  0  0  0  0  0  0  0
   10.6765    8.7729   -9.2652 Br  0  0  0  0  0  0  0  0  0  0  0  0
    9.9225    6.7792  -11.2173 C   0  0  0  0  0  0  0  0  0  0  0  0
   10.1178    6.0271  -12.3638 C   0  0  0  0  0  0  0  0  0  0  0  0
    9.4738    3.5818  -14.9545 N   0  0  0  0  0  0  0  0  0  0  0  0
    8.2048    3.0638  -14.4771 C   0  0  0  0  0  0  0  0  0  0  0  0
    7.7377    2.1003  -15.1850 N   0  0  0  0  0  0  0  0  0  0  0  0
    4.9765    4.0358  -11.2002 H   0  0  0  0  0  0  0  0  0  0  0  0
   11.9259    5.2508  -14.8730 H   0  0  0  0  0  0  0  0  0  0  0  0
    8.2991    1.7721  -15.9874 H   0  0  0  0  0  0  0  0  0  0  0  0
   10.0426    3.0578  -16.1493 C   0  0  0  0  0  0  0  0  0  0  0  0
   10.9490    2.0530  -15.9255 O   0  0  0  0  0  0  0  0  0  0  0  0
   11.4018    1.3498  -16.9727 C   0  0  0  0  0  0  0  0  0  0  0  0
   11.7509    2.1493  -18.2016 C   0  0  0  0  0  0  0  0  0  0  0  0
   13.0310    2.6809  -18.0447 O   0  0  0  0  0  0  0  0  0  0  0  0
   10.7900    3.2595  -18.4641 C   0  0  0  0  0  0  0  0  0  0  0  0
    9.5115    2.8368  -18.7300 O   0  0  0  0  0  0  0  0  0  0  0  0
   10.7095    4.0201  -17.0950 C   0  0  0  0  0  0  0  0  0  0  0  0
    9.9455    5.1641  -17.3144 O   0  0  0  0  0  0  0  0  0  0  0  0
   13.6670    1.9762  -18.3360 H   0  0  0  0  0  0  0  0  0  0  0  0
    8.9203    3.6428  -18.6035 H   0  0  0  0  0  0  0  0  0  0  0  0
    9.1138    5.1011  -16.8157 H   0  0  0  0  0  0  0  0  0  0  0  0
   10.5966    0.1343  -17.3832 C   0  0  0  0  0  0  0  0  0  0  0  0
   10.1002   -0.5219  -16.2329 O   0  0  0  0  0  0  0  0  0  0  0  0
    9.5969    0.1025  -15.6545 H   0  0  0  0  0  0  0  0  0  0  0  0
  1  2  1  0  0  0
  2  3  2  0  0  0
  3  4  1  0  0  0
  4  5  2  0  0  0
  5  6  1  0  0  0
  6  7  2  0  0  0
  6  8  1  0  0  0
  8  9  2  0  0  0
  9 10  1  0  0  0
  9 11  1  0  0  0
 11 12  2  0  0  0
 12 13  1  0  0  0
 13 14  2  0  0  0
 14 15  1  0  0  0
 15 16  1  0  0  0
 16 17  2  0  0  0
 17 18  1  0  0  0
 18 19  2  0  0  0
 19 20  1  0  0  0
 19 21  1  0  0  0
 21 22  2  0  0  0
 14 23  1  0  0  0
 23 29  1  0  0  0
 29 30  1  0  0  0
 30 31  1  0  0  0
 31 41  1  0  0  0
 41 42  1  0  0  0
 31 32  1  0  0  0
 32 33  1  0  0  0
 32 34  1  0  0  0
 34 35  1  0  0  0
 34 36  1  0  0  0
 36 37  1  0  0  0
 23 24  1  0  0  0
 24 25  2  0  0  0
  7  2  1  0  0  0
 24 11  1  0  0  0
 25  5  1  0  0  0
 22 13  1  0  0  0
 36 29  1  0  0  0
 22 16  1  0  0  0
 10 26  1  0  0  0
 15 27  1  0  0  0
 42 43  1  0  0  0
 33 38  1  0  0  0
 35 39  1  0  0  0
 37 40  1  0  0  0
 25 28  1  0  0  0
M  CHG 1   2   1
M  CHG 1  25   1
M  END
> <minimizedAffinity>
-10.58944

$$$$
5_1


 43 48  0  0  0  0  0  0  0  0999 V2000
    7.1056    0.3363  -18.7878 C   0  0  0  0  0  0  0  0  0  0  0  0
    7.9084    1.3046  -18.0370 N   0  0  0  0  0  0  0  0  0  0  0  0
    9.0142    1.7790  -18.6354 C   0  0  0  0  0  0  0  0  0  0  0  0
    9.8095    2.7026  -17.9595 C   0  0  0  0  0  0  0  0  0  0  0  0
    9.4506    3.1133  -16.6923 C   0  0  0  0  0  0  0  0  0  0  0  0
    8.3065    2.5948  -16.1254 C   0  0  0  0  0  0  0  0  0  0  0  0
    7.5219    1.6792  -16.8010 C   0  0  0  0  0  0  0  0  0  0  0  0
    7.7303    2.8538  -14.8518 N   0  0  0  0  0  0  0  0  0  0  0  0
    8.1787    3.6489  -13.9407 C   0  0  0  0  0  0  0  0  0  0  0  0
    7.3947    3.6921  -12.7979 O   0  0  0  0  0  0  0  0  0  0  0  0
    9.3830    4.4915  -13.9613 C   0  0  0  0  0  0  0  0  0  0  0  0
    9.4630    5.1002  -12.8326 N   0  0  0  0  0  0  0  0  0  0  0  0
   10.5571    5.9817  -12.6132 C   0  0  0  0  0  0  0  0  0  0  0  0
   11.5421    6.2202  -13.5592 C   0  0  0  0  0  0  0  0  0  0  0  0
   12.3975    7.0667  -12.9681 N   0  0  0  0  0  0  0  0  0  0  0  0
   11.9956    7.3663  -11.7179 C   0  0  0  0  0  0  0  0  0  0  0  0
   12.5365    8.1773  -10.7460 C   0  0  0  0  0  0  0  0  0  0  0  0
   11.8802    8.2874   -9.5342 C   0  0  0  0  0  0  0  0  0  0  0  0
   10.7058    7.6224   -9.2490 C   0  0  0  0  0  0  0  0  0  0  0  0
    9.8726    7.8365   -7.5480 Br  0  0  0  0  0  0  0  0  0  0  0  0
   10.1782    6.8142  -10.2342 C   0  0  0  0  0  0  0  0  0  0  0  0
   10.8271    6.6964  -11.4520 C   0  0  0  0  0  0  0  0  0  0  0  0
   11.5050    5.5799  -14.8284 N   0  0  0  0  0  0  0  0  0  0  0  0
   10.3765    4.6855  -15.0101 C   0  0  0  0  0  0  0  0  0  0  0  0
   10.3786    4.0687  -16.1358 N   0  0  0  0  0  0  0  0  0  0  0  0
    6.3866    3.5081  -12.8194 H   0  0  0  0  0  0  0  0  0  0  0  0
   13.2738    7.4505  -13.3528 H   0  0  0  0  0  0  0  0  0  0  0  0
   11.1692    4.2366  -16.7790 H   0  0  0  0  0  0  0  0  0  0  0  0
   12.4441    5.7509  -15.8842 C   0  0  0  0  0  0  0  0  0  0  0  0
   13.2917    4.6835  -16.0370 O   0  0  0  0  0  0  0  0  0  0  0  0
   14.0849    4.6410  -17.1164 C   0  0  0  0  0  0  0  0  0  0  0  0
   14.7516    5.9385  -17.4953 C   0  0  0  0  0  0  0  0  0  0  0  0
   15.8884    6.1084  -16.7049 O   0  0  0  0  0  0  0  0  0  0  0  0
   13.8584    7.1210  -17.3265 C   0  0  0  0  0  0  0  0  0  0  0  0
   12.7507    7.1009  -18.1368 O   0  0  0  0  0  0  0  0  0  0  0  0
   13.3157    6.9777  -15.8622 C   0  0  0  0  0  0  0  0  0  0  0  0
   12.5942    8.1366  -15.5851 O   0  0  0  0  0  0  0  0  0  0  0  0
   16.6218    5.6129  -17.1549 H   0  0  0  0  0  0  0  0  0  0  0  0
   12.1051    7.7659  -17.7416 H   0  0  0  0  0  0  0  0  0  0  0  0
   11.6539    7.9167  -15.4758 H   0  0  0  0  0  0  0  0  0  0  0  0
   13.5158    3.9931  -18.3616 C   0  0  0  0  0  0  0  0  0  0  0  0
   14.0482    4.6189  -19.5128 O   0  0  0  0  0  0  0  0  0  0  0  0
   15.0369    4.6234  -19.4922 H   0  0  0  0  0  0  0  0  0  0  0  0
  1  2  1  0  0  0
  2  3  2  0  0  0
  3  4  1  0  0  0
  4  5  2  0  0  0
  5  6  1  0  0  0
  6  7  2  0  0  0
  6  8  1  0  0  0
  8  9  2  0  0  0
  9 10  1  0  0  0
  9 11  1  0  0  0
 11 12  2  0  0  0
 12 13  1  0  0  0
 13 14  2  0  0  0
 14 15  1  0  0  0
 15 16  1  0  0  0
 16 17  2  0  0  0
 17 18  1  0  0  0
 18 19  2  0  0  0
 19 20  1  0  0  0
 19 21  1  0  0  0
 21 22  2  0  0  0
 14 23  1  0  0  0
 23 29  1  0  0  0
 29 30  1  0  0  0
 30 31  1  0  0  0
 31 41  1  0  0  0
 41 42  1  0  0  0
 31 32  1  0  0  0
 32 33  1  0  0  0
 32 34  1  0  0  0
 34 35  1  0  0  0
 34 36  1  0  0  0
 36 37  1  0  0  0
 23 24  1  0  0  0
 24 25  2  0  0  0
  7  2  1  0  0  0
 24 11  1  0  0  0
 25  5  1  0  0  0
 22 13  1  0  0  0
 36 29  1  0  0  0
 22 16  1  0  0  0
 10 26  1  0  0  0
 15 27  1  0  0  0
 42 43  1  0  0  0
 33 38  1  0  0  0
 35 39  1  0  0  0
 37 40  1  0  0  0
 25 28  1  0  0  0
M  CHG 1   2   1
M  CHG 1  25   1
M  END
> <minimizedAffinity>
-9.50718

$$$$
5_1


 43 48  0  0  0  0  0  0  0  0999 V2000
   12.6207    5.8244  -20.0837 C   0  0  0  0  0  0  0  0  0  0  0  0
   12.0245    5.6120  -18.7627 N   0  0  0  0  0  0  0  0  0  0  0  0
   11.0606    4.6804  -18.6678 C   0  0  0  0  0  0  0  0  0  0  0  0
   10.4641    4.4434  -17.4307 C   0  0  0  0  0  0  0  0  0  0  0  0
   10.8707    5.1658  -16.3280 C   0  0  0  0  0  0  0  0  0  0  0  0
   11.8635    6.1093  -16.4814 C   0  0  0  0  0  0  0  0  0  0  0  0
   12.4511    6.3396  -17.7110 C   0  0  0  0  0  0  0  0  0  0  0  0
   12.4498    6.9713  -15.5148 N   0  0  0  0  0  0  0  0  0  0  0  0
   12.1589    7.0481  -14.2607 C   0  0  0  0  0  0  0  0  0  0  0  0
   12.9053    7.9890  -13.5679 O   0  0  0  0  0  0  0  0  0  0  0  0
   11.1629    6.2847  -13.4951 C   0  0  0  0  0  0  0  0  0  0  0  0
   11.1865    6.7040  -12.2808 N   0  0  0  0  0  0  0  0  0  0  0  0
   10.3006    6.1097  -11.3405 C   0  0  0  0  0  0  0  0  0  0  0  0
    9.4130    5.0964  -11.6682 C   0  0  0  0  0  0  0  0  0  0  0  0
    8.7435    4.8378  -10.5357 N   0  0  0  0  0  0  0  0  0  0  0  0
    9.1688    5.6276   -9.5309 C   0  0  0  0  0  0  0  0  0  0  0  0
    8.7895    5.7238   -8.2112 C   0  0  0  0  0  0  0  0  0  0  0  0
    9.4238    6.6509   -7.4053 C   0  0  0  0  0  0  0  0  0  0  0  0
   10.4218    7.4879   -7.8594 C   0  0  0  0  0  0  0  0  0  0  0  0
   11.2389    8.7359   -6.6727 Br  0  0  0  0  0  0  0  0  0  0  0  0
   10.7892    7.3779   -9.1842 C   0  0  0  0  0  0  0  0  0  0  0  0
   10.1605    6.4526  -10.0008 C   0  0  0  0  0  0  0  0  0  0  0  0
    9.3442    4.5874  -12.9942 N   0  0  0  0  0  0  0  0  0  0  0  0
   10.2600    5.2235  -13.9233 C   0  0  0  0  0  0  0  0  0  0  0  0
   10.1544    4.7984  -15.1299 N   0  0  0  0  0  0  0  0  0  0  0  0
   13.8512    8.2574  -13.8576 H   0  0  0  0  0  0  0  0  0  0  0  0
    7.9790    4.1604  -10.3944 H   0  0  0  0  0  0  0  0  0  0  0  0
    9.4341    4.0861  -15.3314 H   0  0  0  0  0  0  0  0  0  0  0  0
    8.4898    3.5449  -13.4514 C   0  0  0  0  0  0  0  0  0  0  0  0
    9.0221    2.8196  -14.4866 O   0  0  0  0  0  0  0  0  0  0  0  0
    8.4024    1.6946  -14.8696 C   0  0  0  0  0  0  0  0  0  0  0  0
    6.8996    1.7678  -14.9575 C   0  0  0  0  0  0  0  0  0  0  0  0
    6.5472    2.3412  -16.1794 O   0  0  0  0  0  0  0  0  0  0  0  0
    6.2914    2.5627  -13.8517 C   0  0  0  0  0  0  0  0  0  0  0  0
    6.4969    2.0277  -12.6044 O   0  0  0  0  0  0  0  0  0  0  0  0
    7.0919    3.9111  -13.8722 C   0  0  0  0  0  0  0  0  0  0  0  0
    6.4695    4.7626  -12.9622 O   0  0  0  0  0  0  0  0  0  0  0  0
    6.5393    1.6045  -16.8451 H   0  0  0  0  0  0  0  0  0  0  0  0
    6.3066    2.7690  -11.9492 H   0  0  0  0  0  0  0  0  0  0  0  0
    7.0691    4.9385  -12.2179 H   0  0  0  0  0  0  0  0  0  0  0  0
    8.7965    0.4171  -14.1577 C   0  0  0  0  0  0  0  0  0  0  0  0
   10.1464    0.1066  -14.4438 O   0  0  0  0  0  0  0  0  0  0  0  0
   10.7405    0.8691  -14.2350 H   0  0  0  0  0  0  0  0  0  0  0  0
  1  2  1  0  0  0
  2  3  2  0  0  0
  3  4  1  0  0  0
  4  5  2  0  0  0
  5  6  1  0  0  0
  6  7  2  0  0  0
  6  8  1  0  0  0
  8  9  2  0  0  0
  9 10  1  0  0  0
  9 11  1  0  0  0
 11 12  2  0  0  0
 12 13  1  0  0  0
 13 14  2  0  0  0
 14 15  1  0  0  0
 15 16  1  0  0  0
 16 17  2  0  0  0
 17 18  1  0  0  0
 18 19  2  0  0  0
 19 20  1  0  0  0
 19 21  1  0  0  0
 21 22  2  0  0  0
 14 23  1  0  0  0
 23 29  1  0  0  0
 29 30  1  0  0  0
 30 31  1  0  0  0
 31 41  1  0  0  0
 41 42  1  0  0  0
 31 32  1  0  0  0
 32 33  1  0  0  0
 32 34  1  0  0  0
 34 35  1  0  0  0
 34 36  1  0  0  0
 36 37  1  0  0  0
 23 24  1  0  0  0
 24 25  2  0  0  0
  7  2  1  0  0  0
 24 11  1  0  0  0
 25  5  1  0  0  0
 22 13  1  0  0  0
 36 29  1  0  0  0
 22 16  1  0  0  0
 10 26  1  0  0  0
 15 27  1  0  0  0
 42 43  1  0  0  0
 33 38  1  0  0  0
 35 39  1  0  0  0
 37 40  1  0  0  0
 25 28  1  0  0  0
M  CHG 1   2   1
M  CHG 1  25   1
M  END
> <minimizedAffinity>
-8.97097

$$$$
5_1


 43 48  0  0  0  0  0  0  0  0999 V2000
   13.2603   -1.0760  -20.0990 C   0  0  0  0  0  0  0  0  0  0  0  0
   12.2531   -0.5224  -19.1908 N   0  0  0  0  0  0  0  0  0  0  0  0
   11.1205   -1.2272  -19.0286 C   0  0  0  0  0  0  0  0  0  0  0  0
   10.1332   -0.7398  -18.1742 C   0  0  0  0  0  0  0  0  0  0  0  0
   10.3335    0.4534  -17.5112 C   0  0  0  0  0  0  0  0  0  0  0  0
   11.5136    1.1358  -17.7140 C   0  0  0  0  0  0  0  0  0  0  0  0
   12.4888    0.6470  -18.5627 C   0  0  0  0  0  0  0  0  0  0  0  0
   11.9538    2.3675  -17.1571 N   0  0  0  0  0  0  0  0  0  0  0  0
   11.3153    3.1195  -16.3263 C   0  0  0  0  0  0  0  0  0  0  0  0
   12.0059    4.2648  -15.9608 O   0  0  0  0  0  0  0  0  0  0  0  0
    9.9844    2.9202  -15.7349 C   0  0  0  0  0  0  0  0  0  0  0  0
    9.7271    3.9297  -14.9828 N   0  0  0  0  0  0  0  0  0  0  0  0
    8.4825    3.9642  -14.2957 C   0  0  0  0  0  0  0  0  0  0  0  0
    7.5322    2.9597  -14.3944 C   0  0  0  0  0  0  0  0  0  0  0  0
    6.5050    3.3743  -13.6390 N   0  0  0  0  0  0  0  0  0  0  0  0
    6.7682    4.5705  -13.0786 C   0  0  0  0  0  0  0  0  0  0  0  0
    6.0323    5.3768  -12.2400 C   0  0  0  0  0  0  0  0  0  0  0  0
    6.5814    6.5749  -11.8224 C   0  0  0  0  0  0  0  0  0  0  0  0
    7.8348    7.0046  -12.2057 C   0  0  0  0  0  0  0  0  0  0  0  0
    8.5086    8.6736  -11.5781 Br  0  0  0  0  0  0  0  0  0  0  0  0
    8.5581    6.1844  -13.0461 C   0  0  0  0  0  0  0  0  0  0  0  0
    8.0179    4.9819  -13.4708 C   0  0  0  0  0  0  0  0  0  0  0  0
    7.7617    1.8155  -15.2070 N   0  0  0  0  0  0  0  0  0  0  0  0
    9.0400    1.8214  -15.8944 C   0  0  0  0  0  0  0  0  0  0  0  0
    9.2179    0.8135  -16.6691 N   0  0  0  0  0  0  0  0  0  0  0  0
   13.0301    4.3075  -15.9561 H   0  0  0  0  0  0  0  0  0  0  0  0
    5.6003    2.9027  -13.4890 H   0  0  0  0  0  0  0  0  0  0  0  0
    8.4519    0.1257  -16.7529 H   0  0  0  0  0  0  0  0  0  0  0  0
    6.8753    0.7154  -15.3799 C   0  0  0  0  0  0  0  0  0  0  0  0
    6.2083    0.7369  -16.5782 O   0  0  0  0  0  0  0  0  0  0  0  0
    5.4992   -0.3415  -16.9393 C   0  0  0  0  0  0  0  0  0  0  0  0
    4.6706   -0.9788  -15.8537 C   0  0  0  0  0  0  0  0  0  0  0  0
    3.4742   -0.2729  -15.7270 O   0  0  0  0  0  0  0  0  0  0  0  0
    5.3643   -1.0046  -14.5335 C   0  0  0  0  0  0  0  0  0  0  0  0
    6.5109   -1.7592  -14.5228 O   0  0  0  0  0  0  0  0  0  0  0  0
    5.8301    0.4781  -14.3233 C   0  0  0  0  0  0  0  0  0  0  0  0
    6.3512    0.5572  -13.0338 O   0  0  0  0  0  0  0  0  0  0  0  0
    2.8528   -0.6465  -16.4054 H   0  0  0  0  0  0  0  0  0  0  0  0
    7.0237   -1.4740  -13.7038 H   0  0  0  0  0  0  0  0  0  0  0  0
    7.3051    0.7374  -13.0784 H   0  0  0  0  0  0  0  0  0  0  0  0
    6.2355   -1.4236  -17.7019 C   0  0  0  0  0  0  0  0  0  0  0  0
    5.7822   -2.6965  -17.2840 O   0  0  0  0  0  0  0  0  0  0  0  0
    4.7987   -2.7675  -17.3574 H   0  0  0  0  0  0  0  0  0  0  0  0
  1  2  1  0  0  0
  2  3  2  0  0  0
  3  4  1  0  0  0
  4  5  2  0  0  0
  5  6  1  0  0  0
  6  7  2  0  0  0
  6  8  1  0  0  0
  8  9  2  0  0  0
  9 10  1  0  0  0
  9 11  1  0  0  0
 11 12  2  0  0  0
 12 13  1  0  0  0
 13 14  2  0  0  0
 14 15  1  0  0  0
 15 16  1  0  0  0
 16 17  2  0  0  0
 17 18  1  0  0  0
 18 19  2  0  0  0
 19 20  1  0  0  0
 19 21  1  0  0  0
 21 22  2  0  0  0
 14 23  1  0  0  0
 23 29  1  0  0  0
 29 30  1  0  0  0
 30 31  1  0  0  0
 31 41  1  0  0  0
 41 42  1  0  0  0
 31 32  1  0  0  0
 32 33  1  0  0  0
 32 34  1  0  0  0
 34 35  1  0  0  0
 34 36  1  0  0  0
 36 37  1  0  0  0
 23 24  1  0  0  0
 24 25  2  0  0  0
  7  2  1  0  0  0
 24 11  1  0  0  0
 25  5  1  0  0  0
 22 13  1  0  0  0
 36 29  1  0  0  0
 22 16  1  0  0  0
 10 26  1  0  0  0
 15 27  1  0  0  0
 42 43  1  0  0  0
 33 38  1  0  0  0
 35 39  1  0  0  0
 37 40  1  0  0  0
 25 28  1  0  0  0
M  CHG 1   2   1
M  CHG 1  25   1
M  END
> <minimizedAffinity>
-8.92179

$$$$
5_1


 43 48  0  0  0  0  0  0  0  0999 V2000
   12.0373    5.6937  -19.7631 C   0  0  0  0  0  0  0  0  0  0  0  0
   11.4872    5.5790  -18.4104 N   0  0  0  0  0  0  0  0  0  0  0  0
   10.3970    4.8086  -18.2553 C   0  0  0  0  0  0  0  0  0  0  0  0
    9.8381    4.6694  -16.9862 C   0  0  0  0  0  0  0  0  0  0  0  0
   10.4104    5.3219  -15.9138 C   0  0  0  0  0  0  0  0  0  0  0  0
   11.5277    6.0995  -16.1290 C   0  0  0  0  0  0  0  0  0  0  0  0
   12.0771    6.2334  -17.3900 C   0  0  0  0  0  0  0  0  0  0  0  0
   12.2915    6.8617  -15.2034 N   0  0  0  0  0  0  0  0  0  0  0  0
   12.0837    6.9852  -13.9365 C   0  0  0  0  0  0  0  0  0  0  0  0
   13.0029    7.8000  -13.2936 O   0  0  0  0  0  0  0  0  0  0  0  0
   11.0240    6.3871  -13.1118 C   0  0  0  0  0  0  0  0  0  0  0  0
   11.1774    6.8000  -11.9048 N   0  0  0  0  0  0  0  0  0  0  0  0
   10.2617    6.3523  -10.9131 C   0  0  0  0  0  0  0  0  0  0  0  0
    9.2115    5.4885  -11.1833 C   0  0  0  0  0  0  0  0  0  0  0  0
    8.5718    5.3391  -10.0145 N   0  0  0  0  0  0  0  0  0  0  0  0
    9.1676    6.0551   -9.0416 C   0  0  0  0  0  0  0  0  0  0  0  0
    8.8791    6.2115   -7.7047 C   0  0  0  0  0  0  0  0  0  0  0  0
    9.6917    7.0304   -6.9429 C   0  0  0  0  0  0  0  0  0  0  0  0
   10.7816    7.7013   -7.4574 C   0  0  0  0  0  0  0  0  0  0  0  0
   11.8447    8.8095   -6.3282 Br  0  0  0  0  0  0  0  0  0  0  0  0
   11.0559    7.5332   -8.7985 C   0  0  0  0  0  0  0  0  0  0  0  0
   10.2485    6.7152   -9.5714 C   0  0  0  0  0  0  0  0  0  0  0  0
    8.9937    4.9938  -12.4985 N   0  0  0  0  0  0  0  0  0  0  0  0
    9.9458    5.4782  -13.4810 C   0  0  0  0  0  0  0  0  0  0  0  0
    9.7111    5.0725  -14.6760 N   0  0  0  0  0  0  0  0  0  0  0  0
   13.9621    7.9177  -13.6354 H   0  0  0  0  0  0  0  0  0  0  0  0
    7.7202    4.7889   -9.8262 H   0  0  0  0  0  0  0  0  0  0  0  0
    8.8793    4.4803  -14.8320 H   0  0  0  0  0  0  0  0  0  0  0  0
    7.9647    4.0958  -12.8995 C   0  0  0  0  0  0  0  0  0  0  0  0
    6.8693    4.1199  -12.0744 O   0  0  0  0  0  0  0  0  0  0  0  0
    5.7619    3.4685  -12.4560 C   0  0  0  0  0  0  0  0  0  0  0  0
    5.9751    2.1029  -13.0568 C   0  0  0  0  0  0  0  0  0  0  0  0
    6.1277    1.1759  -12.0256 O   0  0  0  0  0  0  0  0  0  0  0  0
    7.1685    2.0412  -13.9493 C   0  0  0  0  0  0  0  0  0  0  0  0
    7.0776    2.8487  -15.0555 O   0  0  0  0  0  0  0  0  0  0  0  0
    8.3234    2.6450  -13.0768 C   0  0  0  0  0  0  0  0  0  0  0  0
    9.5034    2.4741  -13.7972 O   0  0  0  0  0  0  0  0  0  0  0  0
    5.2125    0.9018  -11.7548 H   0  0  0  0  0  0  0  0  0  0  0  0
    8.0166    2.9435  -15.4083 H   0  0  0  0  0  0  0  0  0  0  0  0
    9.8545    3.3419  -14.0580 H   0  0  0  0  0  0  0  0  0  0  0  0
    4.7726    4.2368  -13.3077 C   0  0  0  0  0  0  0  0  0  0  0  0
    3.5195    3.5810  -13.2949 O   0  0  0  0  0  0  0  0  0  0  0  0
    3.2042    3.4308  -12.3698 H   0  0  0  0  0  0  0  0  0  0  0  0
  1  2  1  0  0  0
  2  3  2  0  0  0
  3  4  1  0  0  0
  4  5  2  0  0  0
  5  6  1  0  0  0
  6  7  2  0  0  0
  6  8  1  0  0  0
  8  9  2  0  0  0
  9 10  1  0  0  0
  9 11  1  0  0  0
 11 12  2  0  0  0
 12 13  1  0  0  0
 13 14  2  0  0  0
 14 15  1  0  0  0
 15 16  1  0  0  0
 16 17  2  0  0  0
 17 18  1  0  0  0
 18 19  2  0  0  0
 19 20  1  0  0  0
 19 21  1  0  0  0
 21 22  2  0  0  0
 14 23  1  0  0  0
 23 29  1  0  0  0
 29 30  1  0  0  0
 30 31  1  0  0  0
 31 41  1  0  0  0
 41 42  1  0  0  0
 31 32  1  0  0  0
 32 33  1  0  0  0
 32 34  1  0  0  0
 34 35  1  0  0  0
 34 36  1  0  0  0
 36 37  1  0  0  0
 23 24  1  0  0  0
 24 25  2  0  0  0
  7  2  1  0  0  0
 24 11  1  0  0  0
 25  5  1  0  0  0
 22 13  1  0  0  0
 36 29  1  0  0  0
 22 16  1  0  0  0
 10 26  1  0  0  0
 15 27  1  0  0  0
 42 43  1  0  0  0
 33 38  1  0  0  0
 35 39  1  0  0  0
 37 40  1  0  0  0
 25 28  1  0  0  0
M  CHG 1   2   1
M  CHG 1  25   1
M  END
> <minimizedAffinity>
-8.63516

$$$$
