20_0


 32 34  0  0  0  0  0  0  0  0999 V2000
    9.2931    6.2892  -12.7417 N   0  0  0  0  0  0  0  0  0  0  0  0
    8.8222    7.0454  -13.3144 H   0  0  0  0  0  0  0  0  0  0  0  0
    9.0403    4.9612  -13.1257 C   0  0  0  0  0  0  0  0  0  0  0  0
   10.0930    4.1898  -13.6278 C   0  0  0  0  0  0  0  0  0  0  0  0
   11.3677    4.7587  -13.7558 O   0  0  0  0  0  0  0  0  0  0  0  0
    9.9010    2.8735  -14.0014 C   0  0  0  0  0  0  0  0  0  0  0  0
    8.6703    2.2946  -13.8872 N   0  0  0  0  0  0  0  0  0  0  0  0
    7.6297    3.0042  -13.4071 C   0  0  0  0  0  0  0  0  0  0  0  0
    6.4017    2.4270  -13.2822 C   0  0  0  0  0  0  0  0  0  0  0  0
    5.3060    3.1226  -12.7817 C   0  0  0  0  0  0  0  0  0  0  0  0
    5.4828    4.4468  -12.4008 C   0  0  0  0  0  0  0  0  0  0  0  0
    6.7318    4.9945  -12.5410 C   0  0  0  0  0  0  0  0  0  0  0  0
    7.8249    4.3245  -13.0329 C   0  0  0  0  0  0  0  0  0  0  0  0
    6.2190    1.0386  -13.6823 C   0  0  0  0  0  0  0  0  0  0  0  0
    6.3182    0.6326  -15.0400 N   0  0  0  0  0  0  0  0  0  0  0  0
    5.9657    0.1539  -12.8258 O   0  0  0  0  0  0  0  0  0  0  0  0
    5.6603   -0.0817  -15.4647 H   0  0  0  0  0  0  0  0  0  0  0  0
    7.0647    1.0422  -15.6683 H   0  0  0  0  0  0  0  0  0  0  0  0
   10.3481    6.8831   -9.2513 C   0  0  0  0  0  0  0  0  0  0  0  0
    9.6307    6.5042  -10.3953 C   0  0  0  0  0  0  0  0  0  0  0  0
   10.1071    6.7182  -11.6747 C   0  0  0  0  0  0  0  0  0  0  0  0
   11.3320    7.3266  -11.8094 C   0  0  0  0  0  0  0  0  0  0  0  0
   11.8922    7.5784  -13.0908 N   0  0  0  0  0  0  0  0  0  0  0  0
   12.0806    7.7202  -10.7192 C   0  0  0  0  0  0  0  0  0  0  0  0
   11.5677    7.4879   -9.4377 C   0  0  0  0  0  0  0  0  0  0  0  0
   12.3291    7.8866   -8.4152 F   0  0  0  0  0  0  0  0  0  0  0  0
   12.5954    6.8894  -13.4561 H   0  0  0  0  0  0  0  0  0  0  0  0
   11.6012    8.4292  -13.6395 H   0  0  0  0  0  0  0  0  0  0  0  0
    9.7575    6.6106   -8.0529 O   0  0  0  0  0  0  0  0  0  0  0  0
   10.7023    7.0851   -5.8900 C   0  0  0  0  0  0  0  0  0  0  0  0
    9.5765    7.3325   -6.9053 C   0  0  0  0  0  0  0  0  0  0  0  0
    9.4837    8.8391   -7.1504 C   0  0  0  0  0  0  0  0  0  0  0  0
 30 31  1  0  0  0
 31 32  1  0  0  0
 31 29  1  0  0  0
 29 19  1  0  0  0
 19 20  2  0  0  0
 20 21  1  0  0  0
 21  1  1  0  0  0
  1  3  1  0  0  0
  3  4  2  0  0  0
  4  5  1  0  0  0
  4  6  1  0  0  0
  6  7  2  0  0  0
  7  8  1  0  0  0
  8  9  2  0  0  0
  9 14  1  0  0  0
 14 15  1  0  0  0
 14 16  2  0  0  0
  9 10  1  0  0  0
 10 11  2  0  0  0
 11 12  1  0  0  0
 12 13  2  0  0  0
 21 22  2  0  0  0
 22 23  1  0  0  0
 22 24  1  0  0  0
 24 25  2  0  0  0
 25 26  1  0  0  0
 25 19  1  0  0  0
 13  3  1  0  0  0
 13  8  1  0  0  0
  1  2  1  0  0  0
 15 17  1  0  0  0
 15 18  1  0  0  0
 23 27  1  0  0  0
 23 28  1  0  0  0
M  CHG 1   5  -1
M  END
> <minimizedAffinity>
-9.32212

$$$$
20_0


 32 34  0  0  0  0  0  0  0  0999 V2000
    8.9717    6.6448  -12.4709 N   0  0  0  0  0  0  0  0  0  0  0  0
    8.6186    7.4625  -13.0438 H   0  0  0  0  0  0  0  0  0  0  0  0
    8.4556    5.3792  -12.7980 C   0  0  0  0  0  0  0  0  0  0  0  0
    7.1375    5.0739  -12.4448 C   0  0  0  0  0  0  0  0  0  0  0  0
    6.3676    6.0232  -11.7584 O   0  0  0  0  0  0  0  0  0  0  0  0
    6.5769    3.8511  -12.7602 C   0  0  0  0  0  0  0  0  0  0  0  0
    7.3038    2.9086  -13.4281 N   0  0  0  0  0  0  0  0  0  0  0  0
    8.5778    3.1643  -13.7869 C   0  0  0  0  0  0  0  0  0  0  0  0
    9.3036    2.2297  -14.4625 C   0  0  0  0  0  0  0  0  0  0  0  0
   10.6170    2.4595  -14.8590 C   0  0  0  0  0  0  0  0  0  0  0  0
   11.1949    3.6846  -14.5502 C   0  0  0  0  0  0  0  0  0  0  0  0
   10.4349    4.6003  -13.8693 C   0  0  0  0  0  0  0  0  0  0  0  0
    9.1378    4.3918  -13.4693 C   0  0  0  0  0  0  0  0  0  0  0  0
    8.6955    0.9463  -14.7850 C   0  0  0  0  0  0  0  0  0  0  0  0
    7.7734    0.8041  -15.8562 N   0  0  0  0  0  0  0  0  0  0  0  0
    8.9746   -0.0804  -14.1153 O   0  0  0  0  0  0  0  0  0  0  0  0
    6.9089    0.1957  -15.7795 H   0  0  0  0  0  0  0  0  0  0  0  0
    7.9325    1.3121  -16.7709 H   0  0  0  0  0  0  0  0  0  0  0  0
   10.3734    6.9271   -9.0645 C   0  0  0  0  0  0  0  0  0  0  0  0
    9.5295    6.6810  -10.1572 C   0  0  0  0  0  0  0  0  0  0  0  0
    9.9092    6.9380  -11.4609 C   0  0  0  0  0  0  0  0  0  0  0  0
   11.1652    7.4539  -11.6730 C   0  0  0  0  0  0  0  0  0  0  0  0
   11.6311    7.7418  -12.9842 N   0  0  0  0  0  0  0  0  0  0  0  0
   12.0367    7.7156  -10.6358 C   0  0  0  0  0  0  0  0  0  0  0  0
   11.6194    7.4433   -9.3278 C   0  0  0  0  0  0  0  0  0  0  0  0
   12.4981    7.7134   -8.3588 F   0  0  0  0  0  0  0  0  0  0  0  0
   12.2384    7.0237  -13.4513 H   0  0  0  0  0  0  0  0  0  0  0  0
   11.3671    8.6467  -13.4546 H   0  0  0  0  0  0  0  0  0  0  0  0
    9.8684    6.6264   -7.8342 O   0  0  0  0  0  0  0  0  0  0  0  0
   10.8120    7.1288   -5.6771 C   0  0  0  0  0  0  0  0  0  0  0  0
    9.6788    7.3513   -6.6899 C   0  0  0  0  0  0  0  0  0  0  0  0
    9.5595    8.8547   -6.9429 C   0  0  0  0  0  0  0  0  0  0  0  0
 30 31  1  0  0  0
 31 32  1  0  0  0
 31 29  1  0  0  0
 29 19  1  0  0  0
 19 20  2  0  0  0
 20 21  1  0  0  0
 21  1  1  0  0  0
  1  3  1  0  0  0
  3  4  2  0  0  0
  4  5  1  0  0  0
  4  6  1  0  0  0
  6  7  2  0  0  0
  7  8  1  0  0  0
  8  9  2  0  0  0
  9 14  1  0  0  0
 14 15  1  0  0  0
 14 16  2  0  0  0
  9 10  1  0  0  0
 10 11  2  0  0  0
 11 12  1  0  0  0
 12 13  2  0  0  0
 21 22  2  0  0  0
 22 23  1  0  0  0
 22 24  1  0  0  0
 24 25  2  0  0  0
 25 26  1  0  0  0
 25 19  1  0  0  0
 13  3  1  0  0  0
 13  8  1  0  0  0
  1  2  1  0  0  0
 15 17  1  0  0  0
 15 18  1  0  0  0
 23 27  1  0  0  0
 23 28  1  0  0  0
M  CHG 1   5  -1
M  END
> <minimizedAffinity>
-8.69066

$$$$
20_0


 32 34  0  0  0  0  0  0  0  0999 V2000
    8.2633    5.3364  -13.6466 N   0  0  0  0  0  0  0  0  0  0  0  0
    7.4194    5.9357  -13.8707 H   0  0  0  0  0  0  0  0  0  0  0  0
    8.2178    4.0003  -14.0798 C   0  0  0  0  0  0  0  0  0  0  0  0
    9.1758    3.5524  -14.9946 C   0  0  0  0  0  0  0  0  0  0  0  0
   10.1451    4.4445  -15.4738 O   0  0  0  0  0  0  0  0  0  0  0  0
    9.1861    2.2435  -15.4371 C   0  0  0  0  0  0  0  0  0  0  0  0
    8.2541    1.3539  -14.9868 N   0  0  0  0  0  0  0  0  0  0  0  0
    7.3140    1.7461  -14.1040 C   0  0  0  0  0  0  0  0  0  0  0  0
    6.3879    0.8585  -13.6445 C   0  0  0  0  0  0  0  0  0  0  0  0
    5.4087    1.2219  -12.7257 C   0  0  0  0  0  0  0  0  0  0  0  0
    5.3853    2.5342  -12.2704 C   0  0  0  0  0  0  0  0  0  0  0  0
    6.3322    3.3994  -12.7548 C   0  0  0  0  0  0  0  0  0  0  0  0
    7.3059    3.0597  -13.6616 C   0  0  0  0  0  0  0  0  0  0  0  0
    6.4144   -0.5166  -14.1234 C   0  0  0  0  0  0  0  0  0  0  0  0
    6.3309   -0.8281  -15.5068 N   0  0  0  0  0  0  0  0  0  0  0  0
    6.5130   -1.4741  -13.3147 O   0  0  0  0  0  0  0  0  0  0  0  0
    5.7609   -1.6456  -15.8677 H   0  0  0  0  0  0  0  0  0  0  0  0
    6.8454   -0.2397  -16.2204 H   0  0  0  0  0  0  0  0  0  0  0  0
   11.5157    7.0028  -13.1048 C   0  0  0  0  0  0  0  0  0  0  0  0
   10.4081    6.3680  -13.6855 C   0  0  0  0  0  0  0  0  0  0  0  0
    9.3143    5.9604  -12.9458 C   0  0  0  0  0  0  0  0  0  0  0  0
    9.3323    6.1954  -11.5918 C   0  0  0  0  0  0  0  0  0  0  0  0
    8.2444    5.8097  -10.7631 N   0  0  0  0  0  0  0  0  0  0  0  0
   10.3952    6.8157  -10.9679 C   0  0  0  0  0  0  0  0  0  0  0  0
   11.4867    7.2154  -11.7476 C   0  0  0  0  0  0  0  0  0  0  0  0
   12.4904    7.8112  -11.0981 F   0  0  0  0  0  0  0  0  0  0  0  0
    7.5366    6.5459  -10.5184 H   0  0  0  0  0  0  0  0  0  0  0  0
    8.1668    4.8180  -10.4163 H   0  0  0  0  0  0  0  0  0  0  0  0
   12.5239    7.3504  -13.9545 O   0  0  0  0  0  0  0  0  0  0  0  0
   13.1867    8.7043  -15.8316 C   0  0  0  0  0  0  0  0  0  0  0  0
   12.6472    7.3615  -15.3167 C   0  0  0  0  0  0  0  0  0  0  0  0
   13.5560    6.2521  -15.8476 C   0  0  0  0  0  0  0  0  0  0  0  0
 30 31  1  0  0  0
 31 32  1  0  0  0
 31 29  1  0  0  0
 29 19  1  0  0  0
 19 20  2  0  0  0
 20 21  1  0  0  0
 21  1  1  0  0  0
  1  3  1  0  0  0
  3  4  2  0  0  0
  4  5  1  0  0  0
  4  6  1  0  0  0
  6  7  2  0  0  0
  7  8  1  0  0  0
  8  9  2  0  0  0
  9 14  1  0  0  0
 14 15  1  0  0  0
 14 16  2  0  0  0
  9 10  1  0  0  0
 10 11  2  0  0  0
 11 12  1  0  0  0
 12 13  2  0  0  0
 21 22  2  0  0  0
 22 23  1  0  0  0
 22 24  1  0  0  0
 24 25  2  0  0  0
 25 26  1  0  0  0
 25 19  1  0  0  0
 13  3  1  0  0  0
 13  8  1  0  0  0
  1  2  1  0  0  0
 15 17  1  0  0  0
 15 18  1  0  0  0
 23 27  1  0  0  0
 23 28  1  0  0  0
M  CHG 1   5  -1
M  END
> <minimizedAffinity>
-7.54995

$$$$
20_0


 32 34  0  0  0  0  0  0  0  0999 V2000
    8.6706    5.3407  -13.3624 N   0  0  0  0  0  0  0  0  0  0  0  0
    8.2701    6.0602  -14.0284 H   0  0  0  0  0  0  0  0  0  0  0  0
    8.6698    4.0066  -13.8043 C   0  0  0  0  0  0  0  0  0  0  0  0
    9.8450    3.4701  -14.3394 C   0  0  0  0  0  0  0  0  0  0  0  0
   10.9885    4.2744  -14.4420 O   0  0  0  0  0  0  0  0  0  0  0  0
    9.9017    2.1586  -14.7703 C   0  0  0  0  0  0  0  0  0  0  0  0
    8.8032    1.3534  -14.6819 N   0  0  0  0  0  0  0  0  0  0  0  0
    7.6513    1.8326  -14.1714 C   0  0  0  0  0  0  0  0  0  0  0  0
    6.5552    1.0290  -14.0723 C   0  0  0  0  0  0  0  0  0  0  0  0
    5.3521    1.4831  -13.5421 C   0  0  0  0  0  0  0  0  0  0  0  0
    5.2790    2.7993  -13.1035 C   0  0  0  0  0  0  0  0  0  0  0  0
    6.4012    3.5785  -13.2193 C   0  0  0  0  0  0  0  0  0  0  0  0
    7.5970    3.1486  -13.7398 C   0  0  0  0  0  0  0  0  0  0  0  0
    6.6344   -0.3503  -14.5328 C   0  0  0  0  0  0  0  0  0  0  0  0
    7.0468   -0.6753  -15.8528 N   0  0  0  0  0  0  0  0  0  0  0  0
    6.3361   -1.2996  -13.7645 O   0  0  0  0  0  0  0  0  0  0  0  0
    6.5817   -1.4431  -16.4162 H   0  0  0  0  0  0  0  0  0  0  0  0
    7.8419   -0.1478  -16.3107 H   0  0  0  0  0  0  0  0  0  0  0  0
   10.8191    7.1952  -10.9973 C   0  0  0  0  0  0  0  0  0  0  0  0
   10.2512    6.6518  -12.1589 C   0  0  0  0  0  0  0  0  0  0  0  0
    9.1485    5.8195  -12.1265 C   0  0  0  0  0  0  0  0  0  0  0  0
    8.6029    5.5255  -10.8999 C   0  0  0  0  0  0  0  0  0  0  0  0
    7.4666    4.6804  -10.7830 N   0  0  0  0  0  0  0  0  0  0  0  0
    9.1202    6.0319   -9.7253 C   0  0  0  0  0  0  0  0  0  0  0  0
   10.2377    6.8719   -9.7950 C   0  0  0  0  0  0  0  0  0  0  0  0
   10.7014    7.3364   -8.6316 F   0  0  0  0  0  0  0  0  0  0  0  0
    6.5275    5.1411  -10.6897 H   0  0  0  0  0  0  0  0  0  0  0  0
    7.5807    3.6332  -10.7915 H   0  0  0  0  0  0  0  0  0  0  0  0
   11.9046    8.0002  -11.1779 O   0  0  0  0  0  0  0  0  0  0  0  0
   14.0724    8.7769  -11.8802 C   0  0  0  0  0  0  0  0  0  0  0  0
   13.2494    7.8232  -11.0013 C   0  0  0  0  0  0  0  0  0  0  0  0
   13.6960    8.0131   -9.5511 C   0  0  0  0  0  0  0  0  0  0  0  0
 30 31  1  0  0  0
 31 32  1  0  0  0
 31 29  1  0  0  0
 29 19  1  0  0  0
 19 20  2  0  0  0
 20 21  1  0  0  0
 21  1  1  0  0  0
  1  3  1  0  0  0
  3  4  2  0  0  0
  4  5  1  0  0  0
  4  6  1  0  0  0
  6  7  2  0  0  0
  7  8  1  0  0  0
  8  9  2  0  0  0
  9 14  1  0  0  0
 14 15  1  0  0  0
 14 16  2  0  0  0
  9 10  1  0  0  0
 10 11  2  0  0  0
 11 12  1  0  0  0
 12 13  2  0  0  0
 21 22  2  0  0  0
 22 23  1  0  0  0
 22 24  1  0  0  0
 24 25  2  0  0  0
 25 26  1  0  0  0
 25 19  1  0  0  0
 13  3  1  0  0  0
 13  8  1  0  0  0
  1  2  1  0  0  0
 15 17  1  0  0  0
 15 18  1  0  0  0
 23 27  1  0  0  0
 23 28  1  0  0  0
M  CHG 1   5  -1
M  END
> <minimizedAffinity>
-6.98134

$$$$
20_0


 32 34  0  0  0  0  0  0  0  0999 V2000
    8.4004    5.3673  -13.6599 N   0  0  0  0  0  0  0  0  0  0  0  0
    7.9341    6.1473  -14.2036 H   0  0  0  0  0  0  0  0  0  0  0  0
    8.4666    4.1136  -14.2917 C   0  0  0  0  0  0  0  0  0  0  0  0
    7.3358    3.2911  -14.2836 C   0  0  0  0  0  0  0  0  0  0  0  0
    6.1715    3.7221  -13.6327 O   0  0  0  0  0  0  0  0  0  0  0  0
    7.3432    2.0579  -14.9067 C   0  0  0  0  0  0  0  0  0  0  0  0
    8.4632    1.6138  -15.5480 N   0  0  0  0  0  0  0  0  0  0  0  0
    9.5738    2.3771  -15.5790 C   0  0  0  0  0  0  0  0  0  0  0  0
   10.6908    1.9415  -16.2266 C   0  0  0  0  0  0  0  0  0  0  0  0
   11.8525    2.7040  -16.2898 C   0  0  0  0  0  0  0  0  0  0  0  0
   11.8609    3.9468  -15.6689 C   0  0  0  0  0  0  0  0  0  0  0  0
   10.7194    4.3520  -15.0267 C   0  0  0  0  0  0  0  0  0  0  0  0
    9.5637    3.6138  -14.9532 C   0  0  0  0  0  0  0  0  0  0  0  0
   10.6794    0.6383  -16.8767 C   0  0  0  0  0  0  0  0  0  0  0  0
   10.1233   -0.5068  -16.2461 N   0  0  0  0  0  0  0  0  0  0  0  0
   11.1675    0.4922  -18.0260 O   0  0  0  0  0  0  0  0  0  0  0  0
   10.5773   -1.4624  -16.3101 H   0  0  0  0  0  0  0  0  0  0  0  0
    9.2273   -0.4290  -15.6884 H   0  0  0  0  0  0  0  0  0  0  0  0
   10.5346    6.9690  -11.1049 C   0  0  0  0  0  0  0  0  0  0  0  0
    9.9597    6.5654  -12.3189 C   0  0  0  0  0  0  0  0  0  0  0  0
    8.8896    5.6932  -12.3795 C   0  0  0  0  0  0  0  0  0  0  0  0
    8.3844    5.2148  -11.1944 C   0  0  0  0  0  0  0  0  0  0  0  0
    7.2830    4.3172  -11.1724 N   0  0  0  0  0  0  0  0  0  0  0  0
    8.9105    5.5779   -9.9716 C   0  0  0  0  0  0  0  0  0  0  0  0
    9.9943    6.4633   -9.9471 C   0  0  0  0  0  0  0  0  0  0  0  0
   10.4680    6.7844   -8.7402 F   0  0  0  0  0  0  0  0  0  0  0  0
    6.3301    4.7234  -10.9999 H   0  0  0  0  0  0  0  0  0  0  0  0
    7.4354    3.2861  -11.3253 H   0  0  0  0  0  0  0  0  0  0  0  0
   11.5852    7.8335  -11.1945 O   0  0  0  0  0  0  0  0  0  0  0  0
   13.7647    8.6075  -11.8628 C   0  0  0  0  0  0  0  0  0  0  0  0
   12.9229    7.7220  -10.9318 C   0  0  0  0  0  0  0  0  0  0  0  0
   13.2843    8.0758   -9.4887 C   0  0  0  0  0  0  0  0  0  0  0  0
 30 31  1  0  0  0
 31 32  1  0  0  0
 31 29  1  0  0  0
 29 19  1  0  0  0
 19 20  2  0  0  0
 20 21  1  0  0  0
 21  1  1  0  0  0
  1  3  1  0  0  0
  3  4  2  0  0  0
  4  5  1  0  0  0
  4  6  1  0  0  0
  6  7  2  0  0  0
  7  8  1  0  0  0
  8  9  2  0  0  0
  9 14  1  0  0  0
 14 15  1  0  0  0
 14 16  2  0  0  0
  9 10  1  0  0  0
 10 11  2  0  0  0
 11 12  1  0  0  0
 12 13  2  0  0  0
 21 22  2  0  0  0
 22 23  1  0  0  0
 22 24  1  0  0  0
 24 25  2  0  0  0
 25 26  1  0  0  0
 25 19  1  0  0  0
 13  3  1  0  0  0
 13  8  1  0  0  0
  1  2  1  0  0  0
 15 17  1  0  0  0
 15 18  1  0  0  0
 23 27  1  0  0  0
 23 28  1  0  0  0
M  CHG 1   5  -1
M  END
> <minimizedAffinity>
-6.88088

$$$$
