20_1


 33 36  0  0  0  0  0  0  0  0999 V2000
    7.8826    4.5515  -13.0472 N   0  0  0  0  0  0  0  0  0  0  0  0
    8.6624    3.8952  -13.9263 C   0  0  0  0  0  0  0  0  0  0  0  0
    8.1521    2.7379  -14.3932 N   0  0  0  0  0  0  0  0  0  0  0  0
    6.9883    2.1911  -14.0821 C   0  0  0  0  0  0  0  0  0  0  0  0
    6.5402    0.9997  -14.5958 C   0  0  0  0  0  0  0  0  0  0  0  0
    5.3185    0.4934  -14.2149 C   0  0  0  0  0  0  0  0  0  0  0  0
    4.5303    1.1792  -13.3119 C   0  0  0  0  0  0  0  0  0  0  0  0
    4.9548    2.3834  -12.7770 C   0  0  0  0  0  0  0  0  0  0  0  0
    6.1803    2.8562  -13.1820 C   0  0  0  0  0  0  0  0  0  0  0  0
    6.6687    4.0421  -12.6844 C   0  0  0  0  0  0  0  0  0  0  0  0
    5.9362    4.6542  -11.8618 O   0  0  0  0  0  0  0  0  0  0  0  0
    9.9559    4.3026  -14.3971 C   0  0  0  0  0  0  0  0  0  0  0  0
   11.1641    4.1562  -13.8057 C   0  0  0  0  0  0  0  0  0  0  0  0
   12.3709    4.5898  -14.3559 C   0  0  0  0  0  0  0  0  0  0  0  0
   12.3862    5.2163  -15.5843 C   0  0  0  0  0  0  0  0  0  0  0  0
   11.1713    5.3762  -16.2047 C   0  0  0  0  0  0  0  0  0  0  0  0
    9.9995    4.9486  -15.6565 C   0  0  0  0  0  0  0  0  0  0  0  0
   10.1532    4.2826  -10.5557 H   0  0  0  0  0  0  0  0  0  0  0  0
    9.2058    4.6507  -10.5994 O   0  0  0  0  0  0  0  0  0  0  0  0
    8.8982    5.8331  -11.2517 C   0  0  0  0  0  0  0  0  0  0  0  0
    8.2405    5.7475  -12.4243 C   0  0  0  0  0  0  0  0  0  0  0  0
    9.2112    7.1196  -10.8008 N   0  0  0  0  0  0  0  0  0  0  0  0
    8.6171    7.9559  -11.0920 H   0  0  0  0  0  0  0  0  0  0  0  0
   10.3028    7.4653   -9.9463 C   0  0  0  0  0  0  0  0  0  0  0  0
   11.4986    7.7576  -10.6126 C   0  0  0  0  0  0  0  0  0  0  0  0
   12.6117    8.0762   -9.8847 C   0  0  0  0  0  0  0  0  0  0  0  0
   12.4916    8.0911   -8.5087 C   0  0  0  0  0  0  0  0  0  0  0  0
   11.3191    7.8049   -7.8465 C   0  0  0  0  0  0  0  0  0  0  0  0
   10.2103    7.4885   -8.5815 C   0  0  0  0  0  0  0  0  0  0  0  0
   11.3552    7.8551   -6.3890 C   0  0  0  0  0  0  0  0  0  0  0  0
   10.9782    6.9290   -5.6522 O   0  0  0  0  0  0  0  0  0  0  0  0
   11.8428    9.0088   -5.7279 O   0  0  0  0  0  0  0  0  0  0  0  0
   10.9755   10.1525   -5.7379 C   0  0  0  0  0  0  0  0  0  0  0  0
 18 19  1  0  0  0
 19 20  1  0  0  0
 20 21  2  0  0  0
 21  1  1  0  0  0
  1  2  1  0  0  0
  2 12  1  0  0  0
 12 13  2  0  0  0
 13 14  1  0  0  0
 14 15  2  0  0  0
 15 16  1  0  0  0
 16 17  2  0  0  0
  2  3  2  0  0  0
  3  4  1  0  0  0
  4  5  2  0  0  0
  5  6  1  0  0  0
  6  7  2  0  0  0
  7  8  1  0  0  0
  8  9  2  0  0  0
  9 10  1  0  0  0
 10 11  2  0  0  0
 20 22  1  0  0  0
 22 23  1  0  0  0
 22 24  1  0  0  0
 24 25  2  0  0  0
 25 26  1  0  0  0
 26 27  2  0  0  0
 27 28  1  0  0  0
 28 30  1  0  0  0
 30 31  2  0  0  0
 30 32  1  0  0  0
 32 33  1  0  0  0
 28 29  2  0  0  0
 10  1  1  0  0  0
 29 24  1  0  0  0
 17 12  1  0  0  0
  9  4  1  0  0  0
M  END
> <minimizedAffinity>
-10.46658

$$$$
20_1


 33 36  0  0  0  0  0  0  0  0999 V2000
    7.5282    3.3749  -13.2132 N   0  0  0  0  0  0  0  0  0  0  0  0
    8.1800    3.0868  -14.3551 C   0  0  0  0  0  0  0  0  0  0  0  0
    7.5985    2.1455  -15.1256 N   0  0  0  0  0  0  0  0  0  0  0  0
    6.4769    1.4883  -14.8799 C   0  0  0  0  0  0  0  0  0  0  0  0
    5.9507    0.5332  -15.7134 C   0  0  0  0  0  0  0  0  0  0  0  0
    4.7812   -0.1120  -15.3816 C   0  0  0  0  0  0  0  0  0  0  0  0
    4.1247    0.1953  -14.2063 C   0  0  0  0  0  0  0  0  0  0  0  0
    4.6304    1.1544  -13.3456 C   0  0  0  0  0  0  0  0  0  0  0  0
    5.8001    1.7765  -13.7119 C   0  0  0  0  0  0  0  0  0  0  0  0
    6.3641    2.7333  -12.9002 C   0  0  0  0  0  0  0  0  0  0  0  0
    5.7515    3.0009  -11.8320 O   0  0  0  0  0  0  0  0  0  0  0  0
    9.4078    3.6724  -14.8136 C   0  0  0  0  0  0  0  0  0  0  0  0
    9.6003    4.6151  -15.7650 C   0  0  0  0  0  0  0  0  0  0  0  0
   10.8468    5.1214  -16.1350 C   0  0  0  0  0  0  0  0  0  0  0  0
   11.9915    4.6615  -15.5185 C   0  0  0  0  0  0  0  0  0  0  0  0
   11.8215    3.7040  -14.5486 C   0  0  0  0  0  0  0  0  0  0  0  0
   10.5984    3.2175  -14.1966 C   0  0  0  0  0  0  0  0  0  0  0  0
    6.0581    6.4188  -13.3094 H   0  0  0  0  0  0  0  0  0  0  0  0
    7.0234    6.1074  -13.3887 O   0  0  0  0  0  0  0  0  0  0  0  0
    7.7369    5.6184  -12.3071 C   0  0  0  0  0  0  0  0  0  0  0  0
    7.9791    4.2938  -12.2651 C   0  0  0  0  0  0  0  0  0  0  0  0
    8.2329    6.3804  -11.2443 N   0  0  0  0  0  0  0  0  0  0  0  0
    7.5957    6.6670  -10.4386 H   0  0  0  0  0  0  0  0  0  0  0  0
    9.5747    6.8512  -11.1055 C   0  0  0  0  0  0  0  0  0  0  0  0
   10.3330    6.8145  -12.2815 C   0  0  0  0  0  0  0  0  0  0  0  0
   11.6386    7.2201  -12.2508 C   0  0  0  0  0  0  0  0  0  0  0  0
   12.1450    7.6500  -11.0398 C   0  0  0  0  0  0  0  0  0  0  0  0
   11.4054    7.6891   -9.8793 C   0  0  0  0  0  0  0  0  0  0  0  0
   10.1003    7.2829   -9.9185 C   0  0  0  0  0  0  0  0  0  0  0  0
   12.0863    8.1609   -8.6784 C   0  0  0  0  0  0  0  0  0  0  0  0
   13.2937    8.4482   -8.6317 O   0  0  0  0  0  0  0  0  0  0  0  0
   11.3683    8.3180   -7.4678 O   0  0  0  0  0  0  0  0  0  0  0  0
   11.0686    9.6687   -7.0857 C   0  0  0  0  0  0  0  0  0  0  0  0
 18 19  1  0  0  0
 19 20  1  0  0  0
 20 21  2  0  0  0
 21  1  1  0  0  0
  1  2  1  0  0  0
  2 12  1  0  0  0
 12 13  2  0  0  0
 13 14  1  0  0  0
 14 15  2  0  0  0
 15 16  1  0  0  0
 16 17  2  0  0  0
  2  3  2  0  0  0
  3  4  1  0  0  0
  4  5  2  0  0  0
  5  6  1  0  0  0
  6  7  2  0  0  0
  7  8  1  0  0  0
  8  9  2  0  0  0
  9 10  1  0  0  0
 10 11  2  0  0  0
 20 22  1  0  0  0
 22 23  1  0  0  0
 22 24  1  0  0  0
 24 25  2  0  0  0
 25 26  1  0  0  0
 26 27  2  0  0  0
 27 28  1  0  0  0
 28 30  1  0  0  0
 30 31  2  0  0  0
 30 32  1  0  0  0
 32 33  1  0  0  0
 28 29  2  0  0  0
 10  1  1  0  0  0
 29 24  1  0  0  0
 17 12  1  0  0  0
  9  4  1  0  0  0
M  END
> <minimizedAffinity>
-9.92657

$$$$
20_1


 33 36  0  0  0  0  0  0  0  0999 V2000
    7.9785    3.5815  -14.1740 N   0  0  0  0  0  0  0  0  0  0  0  0
    8.5830    3.1254  -15.2868 C   0  0  0  0  0  0  0  0  0  0  0  0
    8.0121    2.0393  -15.8455 N   0  0  0  0  0  0  0  0  0  0  0  0
    6.9417    1.3879  -15.4212 C   0  0  0  0  0  0  0  0  0  0  0  0
    6.4232    0.2794  -16.0429 C   0  0  0  0  0  0  0  0  0  0  0  0
    5.3090   -0.3470  -15.5330 C   0  0  0  0  0  0  0  0  0  0  0  0
    4.7005    0.1336  -14.3904 C   0  0  0  0  0  0  0  0  0  0  0  0
    5.1996    1.2499  -13.7414 C   0  0  0  0  0  0  0  0  0  0  0  0
    6.3135    1.8476  -14.2812 C   0  0  0  0  0  0  0  0  0  0  0  0
    6.8684    2.9555  -13.6836 C   0  0  0  0  0  0  0  0  0  0  0  0
    6.3001    3.3802  -12.6422 O   0  0  0  0  0  0  0  0  0  0  0  0
    9.7518    3.6736  -15.9146 C   0  0  0  0  0  0  0  0  0  0  0  0
   11.0336    3.2445  -15.8536 C   0  0  0  0  0  0  0  0  0  0  0  0
   12.1031    3.8542  -16.5103 C   0  0  0  0  0  0  0  0  0  0  0  0
   11.8911    4.9739  -17.2870 C   0  0  0  0  0  0  0  0  0  0  0  0
   10.5973    5.4283  -17.3648 C   0  0  0  0  0  0  0  0  0  0  0  0
    9.5614    4.8239  -16.7180 C   0  0  0  0  0  0  0  0  0  0  0  0
   11.1500    3.3556  -13.0223 H   0  0  0  0  0  0  0  0  0  0  0  0
   10.2497    3.4844  -12.5663 O   0  0  0  0  0  0  0  0  0  0  0  0
    9.5340    4.6666  -12.6572 C   0  0  0  0  0  0  0  0  0  0  0  0
    8.4297    4.6713  -13.4288 C   0  0  0  0  0  0  0  0  0  0  0  0
    9.8559    5.8672  -12.0160 N   0  0  0  0  0  0  0  0  0  0  0  0
   10.1773    6.7137  -12.5792 H   0  0  0  0  0  0  0  0  0  0  0  0
    9.8045    6.1051  -10.6080 C   0  0  0  0  0  0  0  0  0  0  0  0
    9.1514    5.1114   -9.8695 C   0  0  0  0  0  0  0  0  0  0  0  0
    9.0254    5.2556   -8.5154 C   0  0  0  0  0  0  0  0  0  0  0  0
    9.5581    6.3939   -7.9426 C   0  0  0  0  0  0  0  0  0  0  0  0
   10.2017    7.3753   -8.6623 C   0  0  0  0  0  0  0  0  0  0  0  0
   10.3247    7.2231  -10.0157 C   0  0  0  0  0  0  0  0  0  0  0  0
   10.7027    8.5222   -7.9127 C   0  0  0  0  0  0  0  0  0  0  0  0
    9.9759    9.3336   -7.3161 O   0  0  0  0  0  0  0  0  0  0  0  0
   12.0953    8.7661   -7.8306 O   0  0  0  0  0  0  0  0  0  0  0  0
   12.5693    9.2877   -6.5802 C   0  0  0  0  0  0  0  0  0  0  0  0
 18 19  1  0  0  0
 19 20  1  0  0  0
 20 21  2  0  0  0
 21  1  1  0  0  0
  1  2  1  0  0  0
  2 12  1  0  0  0
 12 13  2  0  0  0
 13 14  1  0  0  0
 14 15  2  0  0  0
 15 16  1  0  0  0
 16 17  2  0  0  0
  2  3  2  0  0  0
  3  4  1  0  0  0
  4  5  2  0  0  0
  5  6  1  0  0  0
  6  7  2  0  0  0
  7  8  1  0  0  0
  8  9  2  0  0  0
  9 10  1  0  0  0
 10 11  2  0  0  0
 20 22  1  0  0  0
 22 23  1  0  0  0
 22 24  1  0  0  0
 24 25  2  0  0  0
 25 26  1  0  0  0
 26 27  2  0  0  0
 27 28  1  0  0  0
 28 30  1  0  0  0
 30 31  2  0  0  0
 30 32  1  0  0  0
 32 33  1  0  0  0
 28 29  2  0  0  0
 10  1  1  0  0  0
 29 24  1  0  0  0
 17 12  1  0  0  0
  9  4  1  0  0  0
M  END
> <minimizedAffinity>
-8.71778

$$$$
20_1


 33 36  0  0  0  0  0  0  0  0999 V2000
    8.1972    1.6431  -15.9216 N   0  0  0  0  0  0  0  0  0  0  0  0
    8.2579    0.5246  -16.6680 C   0  0  0  0  0  0  0  0  0  0  0  0
    7.2452   -0.3455  -16.4809 N   0  0  0  0  0  0  0  0  0  0  0  0
    6.2193   -0.2170  -15.6555 C   0  0  0  0  0  0  0  0  0  0  0  0
    5.2275   -1.1553  -15.5145 C   0  0  0  0  0  0  0  0  0  0  0  0
    4.1964   -0.9498  -14.6265 C   0  0  0  0  0  0  0  0  0  0  0  0
    4.1487    0.2031  -13.8681 C   0  0  0  0  0  0  0  0  0  0  0  0
    5.1340    1.1681  -13.9884 C   0  0  0  0  0  0  0  0  0  0  0  0
    6.1469    0.9266  -14.8857 C   0  0  0  0  0  0  0  0  0  0  0  0
    7.1638    1.8383  -15.0505 C   0  0  0  0  0  0  0  0  0  0  0  0
    7.1040    2.8843  -14.3505 O   0  0  0  0  0  0  0  0  0  0  0  0
    9.2781    0.1811  -17.6177 C   0  0  0  0  0  0  0  0  0  0  0  0
   10.4666   -0.4310  -17.4092 C   0  0  0  0  0  0  0  0  0  0  0  0
   11.3918   -0.7230  -18.4121 C   0  0  0  0  0  0  0  0  0  0  0  0
   11.1230   -0.3846  -19.7218 C   0  0  0  0  0  0  0  0  0  0  0  0
    9.9217    0.2376  -19.9586 C   0  0  0  0  0  0  0  0  0  0  0  0
    9.0268    0.5177  -18.9701 C   0  0  0  0  0  0  0  0  0  0  0  0
   11.1344    0.8904  -14.4242 H   0  0  0  0  0  0  0  0  0  0  0  0
   10.4459    1.6253  -14.2798 O   0  0  0  0  0  0  0  0  0  0  0  0
   10.2708    2.6652  -15.1776 C   0  0  0  0  0  0  0  0  0  0  0  0
    9.1616    2.6511  -15.9421 C   0  0  0  0  0  0  0  0  0  0  0  0
   11.1482    3.7380  -15.3657 N   0  0  0  0  0  0  0  0  0  0  0  0
   11.8513    3.7296  -16.1674 H   0  0  0  0  0  0  0  0  0  0  0  0
   11.2189    4.9141  -14.5574 C   0  0  0  0  0  0  0  0  0  0  0  0
   12.1289    5.8789  -15.0053 C   0  0  0  0  0  0  0  0  0  0  0  0
   12.2912    7.0320  -14.2882 C   0  0  0  0  0  0  0  0  0  0  0  0
   11.5356    7.1823  -13.1418 C   0  0  0  0  0  0  0  0  0  0  0  0
   10.6388    6.2381  -12.6952 C   0  0  0  0  0  0  0  0  0  0  0  0
   10.4814    5.0883  -13.4185 C   0  0  0  0  0  0  0  0  0  0  0  0
    9.9217    6.5406  -11.4614 C   0  0  0  0  0  0  0  0  0  0  0  0
    9.3408    5.6890  -10.7686 O   0  0  0  0  0  0  0  0  0  0  0  0
    9.8571    7.8721  -10.9832 O   0  0  0  0  0  0  0  0  0  0  0  0
   10.4521    8.1080   -9.6985 C   0  0  0  0  0  0  0  0  0  0  0  0
 18 19  1  0  0  0
 19 20  1  0  0  0
 20 21  2  0  0  0
 21  1  1  0  0  0
  1  2  1  0  0  0
  2 12  1  0  0  0
 12 13  2  0  0  0
 13 14  1  0  0  0
 14 15  2  0  0  0
 15 16  1  0  0  0
 16 17  2  0  0  0
  2  3  2  0  0  0
  3  4  1  0  0  0
  4  5  2  0  0  0
  5  6  1  0  0  0
  6  7  2  0  0  0
  7  8  1  0  0  0
  8  9  2  0  0  0
  9 10  1  0  0  0
 10 11  2  0  0  0
 20 22  1  0  0  0
 22 23  1  0  0  0
 22 24  1  0  0  0
 24 25  2  0  0  0
 25 26  1  0  0  0
 26 27  2  0  0  0
 27 28  1  0  0  0
 28 30  1  0  0  0
 30 31  2  0  0  0
 30 32  1  0  0  0
 32 33  1  0  0  0
 28 29  2  0  0  0
 10  1  1  0  0  0
 29 24  1  0  0  0
 17 12  1  0  0  0
  9  4  1  0  0  0
M  END
> <minimizedAffinity>
-8.70759

$$$$
20_1


 33 36  0  0  0  0  0  0  0  0999 V2000
    8.1120    1.1484  -14.8567 N   0  0  0  0  0  0  0  0  0  0  0  0
    8.3134    0.5416  -16.0412 C   0  0  0  0  0  0  0  0  0  0  0  0
    7.2488   -0.1234  -16.5333 N   0  0  0  0  0  0  0  0  0  0  0  0
    6.0513   -0.2398  -15.9832 C   0  0  0  0  0  0  0  0  0  0  0  0
    5.0158   -0.9444  -16.5446 C   0  0  0  0  0  0  0  0  0  0  0  0
    3.8005   -1.0244  -15.9039 C   0  0  0  0  0  0  0  0  0  0  0  0
    3.6101   -0.3960  -14.6891 C   0  0  0  0  0  0  0  0  0  0  0  0
    4.6352    0.3225  -14.0980 C   0  0  0  0  0  0  0  0  0  0  0  0
    5.8337    0.3792  -14.7687 C   0  0  0  0  0  0  0  0  0  0  0  0
    6.8984    1.0683  -14.2358 C   0  0  0  0  0  0  0  0  0  0  0  0
    6.7066    1.6354  -13.1270 O   0  0  0  0  0  0  0  0  0  0  0  0
    9.5279    0.5350  -16.8065 C   0  0  0  0  0  0  0  0  0  0  0  0
   10.4189    1.5345  -17.0014 C   0  0  0  0  0  0  0  0  0  0  0  0
   11.5790    1.4205  -17.7682 C   0  0  0  0  0  0  0  0  0  0  0  0
   11.8830    0.2280  -18.3907 C   0  0  0  0  0  0  0  0  0  0  0  0
   10.9932   -0.8021  -18.2072 C   0  0  0  0  0  0  0  0  0  0  0  0
    9.8633   -0.6777  -17.4560 C   0  0  0  0  0  0  0  0  0  0  0  0
    7.4523    4.4234  -14.3318 H   0  0  0  0  0  0  0  0  0  0  0  0
    8.2118    3.9303  -14.7953 O   0  0  0  0  0  0  0  0  0  0  0  0
    9.1605    3.2027  -14.0962 C   0  0  0  0  0  0  0  0  0  0  0  0
    9.0930    1.8590  -14.1644 C   0  0  0  0  0  0  0  0  0  0  0  0
   10.1912    3.7401  -13.3182 N   0  0  0  0  0  0  0  0  0  0  0  0
   10.4414    3.3078  -12.3761 H   0  0  0  0  0  0  0  0  0  0  0  0
   10.9945    4.8717  -13.6579 C   0  0  0  0  0  0  0  0  0  0  0  0
   10.8289    5.9805  -12.8196 C   0  0  0  0  0  0  0  0  0  0  0  0
   11.5337    7.1246  -13.0735 C   0  0  0  0  0  0  0  0  0  0  0  0
   12.3836    7.1223  -14.1623 C   0  0  0  0  0  0  0  0  0  0  0  0
   12.5517    6.0359  -14.9910 C   0  0  0  0  0  0  0  0  0  0  0  0
   11.8443    4.8951  -14.7297 C   0  0  0  0  0  0  0  0  0  0  0  0
   13.4805    6.1931  -16.1049 C   0  0  0  0  0  0  0  0  0  0  0  0
   13.5699    7.2217  -16.7952 O   0  0  0  0  0  0  0  0  0  0  0  0
   14.3544    5.1361  -16.4582 O   0  0  0  0  0  0  0  0  0  0  0  0
   14.0485    4.4499  -17.6812 C   0  0  0  0  0  0  0  0  0  0  0  0
 18 19  1  0  0  0
 19 20  1  0  0  0
 20 21  2  0  0  0
 21  1  1  0  0  0
  1  2  1  0  0  0
  2 12  1  0  0  0
 12 13  2  0  0  0
 13 14  1  0  0  0
 14 15  2  0  0  0
 15 16  1  0  0  0
 16 17  2  0  0  0
  2  3  2  0  0  0
  3  4  1  0  0  0
  4  5  2  0  0  0
  5  6  1  0  0  0
  6  7  2  0  0  0
  7  8  1  0  0  0
  8  9  2  0  0  0
  9 10  1  0  0  0
 10 11  2  0  0  0
 20 22  1  0  0  0
 22 23  1  0  0  0
 22 24  1  0  0  0
 24 25  2  0  0  0
 25 26  1  0  0  0
 26 27  2  0  0  0
 27 28  1  0  0  0
 28 30  1  0  0  0
 30 31  2  0  0  0
 30 32  1  0  0  0
 32 33  1  0  0  0
 28 29  2  0  0  0
 10  1  1  0  0  0
 29 24  1  0  0  0
 17 12  1  0  0  0
  9  4  1  0  0  0
M  END
> <minimizedAffinity>
-8.58744

$$$$
20_1


 33 36  0  0  0  0  0  0  0  0999 V2000
    8.5590    3.1737  -15.4137 N   0  0  0  0  0  0  0  0  0  0  0  0
    9.5378    3.2680  -16.3329 C   0  0  0  0  0  0  0  0  0  0  0  0
    9.5222    2.3156  -17.2871 N   0  0  0  0  0  0  0  0  0  0  0  0
    8.6627    1.3176  -17.4104 C   0  0  0  0  0  0  0  0  0  0  0  0
    8.7179    0.3782  -18.4096 C   0  0  0  0  0  0  0  0  0  0  0  0
    7.7889   -0.6356  -18.4637 C   0  0  0  0  0  0  0  0  0  0  0  0
    6.7908   -0.7182  -17.5130 C   0  0  0  0  0  0  0  0  0  0  0  0
    6.7086    0.2147  -16.4934 C   0  0  0  0  0  0  0  0  0  0  0  0
    7.6544    1.2119  -16.4735 C   0  0  0  0  0  0  0  0  0  0  0  0
    7.6384    2.1676  -15.4841 C   0  0  0  0  0  0  0  0  0  0  0  0
    6.7208    2.0767  -14.6253 O   0  0  0  0  0  0  0  0  0  0  0  0
   10.5720    4.2621  -16.3863 C   0  0  0  0  0  0  0  0  0  0  0  0
   10.5290    5.5109  -16.9055 C   0  0  0  0  0  0  0  0  0  0  0  0
   11.6002    6.4051  -16.9028 C   0  0  0  0  0  0  0  0  0  0  0  0
   12.8068    6.0383  -16.3447 C   0  0  0  0  0  0  0  0  0  0  0  0
   12.8748    4.7747  -15.8106 C   0  0  0  0  0  0  0  0  0  0  0  0
   11.8214    3.9106  -15.8199 C   0  0  0  0  0  0  0  0  0  0  0  0
   11.0639    3.0950  -13.1433 H   0  0  0  0  0  0  0  0  0  0  0  0
   10.0606    2.9390  -13.0808 O   0  0  0  0  0  0  0  0  0  0  0  0
    9.1408    3.9682  -13.1938 C   0  0  0  0  0  0  0  0  0  0  0  0
    8.4183    4.0393  -14.3286 C   0  0  0  0  0  0  0  0  0  0  0  0
    8.8914    4.9499  -12.2292 N   0  0  0  0  0  0  0  0  0  0  0  0
    7.9347    5.0226  -11.7640 H   0  0  0  0  0  0  0  0  0  0  0  0
    9.8252    5.9285  -11.7690 C   0  0  0  0  0  0  0  0  0  0  0  0
   10.8279    6.2593  -12.6880 C   0  0  0  0  0  0  0  0  0  0  0  0
   11.7872    7.1682  -12.3361 C   0  0  0  0  0  0  0  0  0  0  0  0
   11.7120    7.7179  -11.0712 C   0  0  0  0  0  0  0  0  0  0  0  0
   10.7290    7.3977  -10.1622 C   0  0  0  0  0  0  0  0  0  0  0  0
    9.7727    6.4889  -10.5221 C   0  0  0  0  0  0  0  0  0  0  0  0
   10.7910    8.0583   -8.8630 C   0  0  0  0  0  0  0  0  0  0  0  0
    9.9448    8.8711   -8.4556 O   0  0  0  0  0  0  0  0  0  0  0  0
   11.8620    7.7876   -7.9767 O   0  0  0  0  0  0  0  0  0  0  0  0
   12.4230    8.9242   -7.3032 C   0  0  0  0  0  0  0  0  0  0  0  0
 18 19  1  0  0  0
 19 20  1  0  0  0
 20 21  2  0  0  0
 21  1  1  0  0  0
  1  2  1  0  0  0
  2 12  1  0  0  0
 12 13  2  0  0  0
 13 14  1  0  0  0
 14 15  2  0  0  0
 15 16  1  0  0  0
 16 17  2  0  0  0
  2  3  2  0  0  0
  3  4  1  0  0  0
  4  5  2  0  0  0
  5  6  1  0  0  0
  6  7  2  0  0  0
  7  8  1  0  0  0
  8  9  2  0  0  0
  9 10  1  0  0  0
 10 11  2  0  0  0
 20 22  1  0  0  0
 22 23  1  0  0  0
 22 24  1  0  0  0
 24 25  2  0  0  0
 25 26  1  0  0  0
 26 27  2  0  0  0
 27 28  1  0  0  0
 28 30  1  0  0  0
 30 31  2  0  0  0
 30 32  1  0  0  0
 32 33  1  0  0  0
 28 29  2  0  0  0
 10  1  1  0  0  0
 29 24  1  0  0  0
 17 12  1  0  0  0
  9  4  1  0  0  0
M  END
> <minimizedAffinity>
-8.31581

$$$$
20_1


 33 36  0  0  0  0  0  0  0  0999 V2000
    9.1422    4.7806  -13.3049 N   0  0  0  0  0  0  0  0  0  0  0  0
    9.2153    4.1910  -14.5127 C   0  0  0  0  0  0  0  0  0  0  0  0
    8.2184    3.3267  -14.7903 N   0  0  0  0  0  0  0  0  0  0  0  0
    7.1973    3.0037  -14.0137 C   0  0  0  0  0  0  0  0  0  0  0  0
    6.2221    2.1041  -14.3655 C   0  0  0  0  0  0  0  0  0  0  0  0
    5.1949    1.8161  -13.4961 C   0  0  0  0  0  0  0  0  0  0  0  0
    5.1343    2.4297  -12.2605 C   0  0  0  0  0  0  0  0  0  0  0  0
    6.1027    3.3419  -11.8776 C   0  0  0  0  0  0  0  0  0  0  0  0
    7.1122    3.6031  -12.7731 C   0  0  0  0  0  0  0  0  0  0  0  0
    8.1128    4.4921  -12.4553 C   0  0  0  0  0  0  0  0  0  0  0  0
    8.0415    5.0425  -11.3240 O   0  0  0  0  0  0  0  0  0  0  0  0
   10.2333    4.3906  -15.5049 C   0  0  0  0  0  0  0  0  0  0  0  0
   10.2068    5.1720  -16.6092 C   0  0  0  0  0  0  0  0  0  0  0  0
   11.2614    5.2970  -17.5143 C   0  0  0  0  0  0  0  0  0  0  0  0
   12.4325    4.5967  -17.3139 C   0  0  0  0  0  0  0  0  0  0  0  0
   12.4834    3.7966  -16.1987 C   0  0  0  0  0  0  0  0  0  0  0  0
   11.4461    3.6828  -15.3225 C   0  0  0  0  0  0  0  0  0  0  0  0
    7.8996    7.5534  -11.8205 H   0  0  0  0  0  0  0  0  0  0  0  0
    8.5263    7.4050  -12.6081 O   0  0  0  0  0  0  0  0  0  0  0  0
    9.8240    6.9484  -12.4483 C   0  0  0  0  0  0  0  0  0  0  0  0
   10.0898    5.6793  -12.8140 C   0  0  0  0  0  0  0  0  0  0  0  0
   10.8935    7.6905  -11.9367 N   0  0  0  0  0  0  0  0  0  0  0  0
   11.5589    8.2054  -12.5919 H   0  0  0  0  0  0  0  0  0  0  0  0
   11.2203    7.8457  -10.5545 C   0  0  0  0  0  0  0  0  0  0  0  0
   12.5908    7.9314  -10.2826 C   0  0  0  0  0  0  0  0  0  0  0  0
   13.0112    8.0563   -8.9873 C   0  0  0  0  0  0  0  0  0  0  0  0
   12.0432    8.0905   -8.0026 C   0  0  0  0  0  0  0  0  0  0  0  0
   10.6938    8.0069   -8.2624 C   0  0  0  0  0  0  0  0  0  0  0  0
   10.2814    7.8835   -9.5603 C   0  0  0  0  0  0  0  0  0  0  0  0
    9.7966    8.0494   -7.1128 C   0  0  0  0  0  0  0  0  0  0  0  0
    9.7125    9.0118   -6.3322 O   0  0  0  0  0  0  0  0  0  0  0  0
    8.9496    6.9503   -6.8293 O   0  0  0  0  0  0  0  0  0  0  0  0
    8.9901    5.8668   -7.7699 C   0  0  0  0  0  0  0  0  0  0  0  0
 18 19  1  0  0  0
 19 20  1  0  0  0
 20 21  2  0  0  0
 21  1  1  0  0  0
  1  2  1  0  0  0
  2 12  1  0  0  0
 12 13  2  0  0  0
 13 14  1  0  0  0
 14 15  2  0  0  0
 15 16  1  0  0  0
 16 17  2  0  0  0
  2  3  2  0  0  0
  3  4  1  0  0  0
  4  5  2  0  0  0
  5  6  1  0  0  0
  6  7  2  0  0  0
  7  8  1  0  0  0
  8  9  2  0  0  0
  9 10  1  0  0  0
 10 11  2  0  0  0
 20 22  1  0  0  0
 22 23  1  0  0  0
 22 24  1  0  0  0
 24 25  2  0  0  0
 25 26  1  0  0  0
 26 27  2  0  0  0
 27 28  1  0  0  0
 28 30  1  0  0  0
 30 31  2  0  0  0
 30 32  1  0  0  0
 32 33  1  0  0  0
 28 29  2  0  0  0
 10  1  1  0  0  0
 29 24  1  0  0  0
 17 12  1  0  0  0
  9  4  1  0  0  0
M  END
> <minimizedAffinity>
-7.82463

$$$$
