6_0


 28 32  0  0  0  0  0  0  0  0999 V2000
    9.6313    6.6597  -10.2607 C   0  0  0  0  0  0  0  0  0  0  0  0
    8.6381    5.9315  -10.8055 N   0  0  0  0  0  0  0  0  0  0  0  0
    8.6321    5.5234  -12.0942 C   0  0  0  0  0  0  0  0  0  0  0  0
    9.6828    5.8757  -12.8496 N   0  0  0  0  0  0  0  0  0  0  0  0
   10.7200    6.5972  -12.4052 C   0  0  0  0  0  0  0  0  0  0  0  0
   10.6935    6.9986  -11.0794 C   0  0  0  0  0  0  0  0  0  0  0  0
   11.8311    7.7106  -10.8446 N   0  0  0  0  0  0  0  0  0  0  0  0
   12.5478    7.7549  -11.9838 C   0  0  0  0  0  0  0  0  0  0  0  0
   11.8563    7.0775  -12.9057 N   0  0  0  0  0  0  0  0  0  0  0  0
    7.5631    4.7561  -12.6284 N   0  0  0  0  0  0  0  0  0  0  0  0
    7.7290    3.5907  -13.4906 C   0  0  0  0  0  0  0  0  0  0  0  0
    6.3372    3.0555  -13.6905 C   0  0  0  0  0  0  0  0  0  0  0  0
    5.5751    3.6124  -12.4815 C   0  0  0  0  0  0  0  0  0  0  0  0
    6.1543    5.0128  -12.3990 C   0  0  0  0  0  0  0  0  0  0  0  0
   12.2840    6.8813  -14.2947 C   0  0  0  0  0  0  0  0  0  0  0  0
   12.5885    7.4040  -15.2659 N   0  0  0  0  0  0  0  0  0  0  0  0
   12.9501    6.9465  -16.4475 C   0  0  0  0  0  0  0  0  0  0  0  0
   12.9526    5.5635  -16.4911 C   0  0  0  0  0  0  0  0  0  0  0  0
   12.4312    5.0190  -14.8188 S   0  0  0  0  0  0  0  0  0  0  0  0
    9.5985    7.0708   -8.8932 N   0  0  0  0  0  0  0  0  0  0  0  0
    9.0660    7.9111   -8.6390 H   0  0  0  0  0  0  0  0  0  0  0  0
   10.3033    6.3267   -7.8473 C   0  0  0  0  0  0  0  0  0  0  0  0
   12.1819    9.1159   -5.1663 C   0  0  0  0  0  0  0  0  0  0  0  0
   11.6211    7.9530   -4.6689 C   0  0  0  0  0  0  0  0  0  0  0  0
   11.0194    7.0654   -5.5498 C   0  0  0  0  0  0  0  0  0  0  0  0
   10.9492    7.2796   -6.9018 C   0  0  0  0  0  0  0  0  0  0  0  0
   11.5174    8.4559   -7.3978 C   0  0  0  0  0  0  0  0  0  0  0  0
   12.1167    9.3419   -6.5282 C   0  0  0  0  0  0  0  0  0  0  0  0
 23 24  2  0  0  0
 24 25  1  0  0  0
 25 26  2  0  0  0
 26 22  1  0  0  0
 22 20  1  0  0  0
 20  1  1  0  0  0
  1  2  2  0  0  0
  2  3  1  0  0  0
  3 10  1  0  0  0
 10 11  1  0  0  0
 11 12  1  0  0  0
 12 13  1  0  0  0
 13 14  1  0  0  0
  3  4  2  0  0  0
  4  5  1  0  0  0
  5  6  2  0  0  0
  6  7  1  0  0  0
  7  8  2  0  0  0
  8  9  1  0  0  0
  9 15  1  0  0  0
 15 16  2  0  0  0
 16 17  1  0  0  0
 17 18  2  0  0  0
 18 19  1  0  0  0
 26 27  1  0  0  0
 27 28  2  0  0  0
 28 23  1  0  0  0
  6  1  1  0  0  0
 19 15  1  0  0  0
 14 10  1  0  0  0
  9  5  1  0  0  0
 20 21  1  0  0  0
M  END
> <minimizedAffinity>
-9.18751

$$$$
6_0


 28 32  0  0  0  0  0  0  0  0999 V2000
    8.8129    5.6530  -12.3988 C   0  0  0  0  0  0  0  0  0  0  0  0
    9.8775    5.4612  -13.2007 N   0  0  0  0  0  0  0  0  0  0  0  0
    9.9640    4.4545  -14.0988 C   0  0  0  0  0  0  0  0  0  0  0  0
    8.9204    3.6156  -14.1757 N   0  0  0  0  0  0  0  0  0  0  0  0
    7.8162    3.7185  -13.4247 C   0  0  0  0  0  0  0  0  0  0  0  0
    7.7612    4.7619  -12.5147 C   0  0  0  0  0  0  0  0  0  0  0  0
    6.5659    4.6770  -11.8667 N   0  0  0  0  0  0  0  0  0  0  0  0
    5.8929    3.6168  -12.3528 C   0  0  0  0  0  0  0  0  0  0  0  0
    6.6679    3.0588  -13.2881 N   0  0  0  0  0  0  0  0  0  0  0  0
   11.1067    4.2890  -14.9256 N   0  0  0  0  0  0  0  0  0  0  0  0
   11.1359    3.4973  -16.1509 C   0  0  0  0  0  0  0  0  0  0  0  0
   12.5071    3.7249  -16.7265 C   0  0  0  0  0  0  0  0  0  0  0  0
   12.9326    5.0550  -16.0923 C   0  0  0  0  0  0  0  0  0  0  0  0
   12.4089    4.8779  -14.6788 C   0  0  0  0  0  0  0  0  0  0  0  0
    6.3104    1.8713  -14.0710 C   0  0  0  0  0  0  0  0  0  0  0  0
    6.5753    1.2338  -14.9834 N   0  0  0  0  0  0  0  0  0  0  0  0
    6.0445    0.1386  -15.4886 C   0  0  0  0  0  0  0  0  0  0  0  0
    4.9591   -0.3009  -14.7514 C   0  0  0  0  0  0  0  0  0  0  0  0
    4.7804    0.9007  -13.3770 S   0  0  0  0  0  0  0  0  0  0  0  0
    8.7618    6.7304  -11.4625 N   0  0  0  0  0  0  0  0  0  0  0  0
    7.9282    6.8376  -10.8726 H   0  0  0  0  0  0  0  0  0  0  0  0
    9.8646    7.6835  -11.3228 C   0  0  0  0  0  0  0  0  0  0  0  0
   11.4858    7.3608   -7.3524 C   0  0  0  0  0  0  0  0  0  0  0  0
   11.9724    8.3231   -8.2192 C   0  0  0  0  0  0  0  0  0  0  0  0
   11.4365    8.4115   -9.4963 C   0  0  0  0  0  0  0  0  0  0  0  0
   10.4397    7.5884   -9.9519 C   0  0  0  0  0  0  0  0  0  0  0  0
    9.9528    6.6187   -9.0716 C   0  0  0  0  0  0  0  0  0  0  0  0
   10.4806    6.5254   -7.8015 C   0  0  0  0  0  0  0  0  0  0  0  0
 23 24  2  0  0  0
 24 25  1  0  0  0
 25 26  2  0  0  0
 26 22  1  0  0  0
 22 20  1  0  0  0
 20  1  1  0  0  0
  1  2  2  0  0  0
  2  3  1  0  0  0
  3 10  1  0  0  0
 10 11  1  0  0  0
 11 12  1  0  0  0
 12 13  1  0  0  0
 13 14  1  0  0  0
  3  4  2  0  0  0
  4  5  1  0  0  0
  5  6  2  0  0  0
  6  7  1  0  0  0
  7  8  2  0  0  0
  8  9  1  0  0  0
  9 15  1  0  0  0
 15 16  2  0  0  0
 16 17  1  0  0  0
 17 18  2  0  0  0
 18 19  1  0  0  0
 26 27  1  0  0  0
 27 28  2  0  0  0
 28 23  1  0  0  0
  6  1  1  0  0  0
 19 15  1  0  0  0
 14 10  1  0  0  0
  9  5  1  0  0  0
 20 21  1  0  0  0
M  END
> <minimizedAffinity>
-8.83834

$$$$
6_0


 28 32  0  0  0  0  0  0  0  0999 V2000
   11.1009    7.3298  -11.4533 C   0  0  0  0  0  0  0  0  0  0  0  0
   11.8485    7.4354  -12.5683 N   0  0  0  0  0  0  0  0  0  0  0  0
   11.6585    6.6744  -13.6693 C   0  0  0  0  0  0  0  0  0  0  0  0
   10.6659    5.7735  -13.6232 N   0  0  0  0  0  0  0  0  0  0  0  0
    9.8664    5.5894  -12.5647 C   0  0  0  0  0  0  0  0  0  0  0  0
   10.0892    6.3865  -11.4534 C   0  0  0  0  0  0  0  0  0  0  0  0
    9.1740    6.0349  -10.5075 N   0  0  0  0  0  0  0  0  0  0  0  0
    8.4025    5.0507  -11.0072 C   0  0  0  0  0  0  0  0  0  0  0  0
    8.8409    4.8027  -12.2454 N   0  0  0  0  0  0  0  0  0  0  0  0
   12.4710    6.8190  -14.8250 N   0  0  0  0  0  0  0  0  0  0  0  0
   12.9534    5.7114  -15.6433 C   0  0  0  0  0  0  0  0  0  0  0  0
   13.6561    6.3637  -16.8027 C   0  0  0  0  0  0  0  0  0  0  0  0
   13.0293    7.7629  -16.8447 C   0  0  0  0  0  0  0  0  0  0  0  0
   12.9410    8.0810  -15.3633 C   0  0  0  0  0  0  0  0  0  0  0  0
    8.2732    3.7952  -13.1473 C   0  0  0  0  0  0  0  0  0  0  0  0
    8.5073    3.0234  -13.9588 N   0  0  0  0  0  0  0  0  0  0  0  0
    7.7464    2.1958  -14.6463 C   0  0  0  0  0  0  0  0  0  0  0  0
    6.4121    2.3044  -14.2968 C   0  0  0  0  0  0  0  0  0  0  0  0
    6.3490    3.5971  -12.9969 S   0  0  0  0  0  0  0  0  0  0  0  0
   11.3352    8.1542  -10.3107 N   0  0  0  0  0  0  0  0  0  0  0  0
   10.6845    8.9227  -10.1100 H   0  0  0  0  0  0  0  0  0  0  0  0
   12.4767    7.9322   -9.4207 C   0  0  0  0  0  0  0  0  0  0  0  0
   11.1999    8.1477   -5.3195 C   0  0  0  0  0  0  0  0  0  0  0  0
   10.9026    7.0280   -6.0758 C   0  0  0  0  0  0  0  0  0  0  0  0
   11.3231    6.9771   -7.3974 C   0  0  0  0  0  0  0  0  0  0  0  0
   12.0254    7.9869   -8.0021 C   0  0  0  0  0  0  0  0  0  0  0  0
   12.3224    9.1150   -7.2329 C   0  0  0  0  0  0  0  0  0  0  0  0
   11.9077    9.1720   -5.9194 C   0  0  0  0  0  0  0  0  0  0  0  0
 23 24  2  0  0  0
 24 25  1  0  0  0
 25 26  2  0  0  0
 26 22  1  0  0  0
 22 20  1  0  0  0
 20  1  1  0  0  0
  1  2  2  0  0  0
  2  3  1  0  0  0
  3 10  1  0  0  0
 10 11  1  0  0  0
 11 12  1  0  0  0
 12 13  1  0  0  0
 13 14  1  0  0  0
  3  4  2  0  0  0
  4  5  1  0  0  0
  5  6  2  0  0  0
  6  7  1  0  0  0
  7  8  2  0  0  0
  8  9  1  0  0  0
  9 15  1  0  0  0
 15 16  2  0  0  0
 16 17  1  0  0  0
 17 18  2  0  0  0
 18 19  1  0  0  0
 26 27  1  0  0  0
 27 28  2  0  0  0
 28 23  1  0  0  0
  6  1  1  0  0  0
 19 15  1  0  0  0
 14 10  1  0  0  0
  9  5  1  0  0  0
 20 21  1  0  0  0
M  END
> <minimizedAffinity>
-8.60670

$$$$
6_0


 28 32  0  0  0  0  0  0  0  0999 V2000
   10.9273    6.6570  -12.8521 C   0  0  0  0  0  0  0  0  0  0  0  0
   11.7925    6.8993  -13.8551 N   0  0  0  0  0  0  0  0  0  0  0  0
   12.0470    6.0203  -14.8501 C   0  0  0  0  0  0  0  0  0  0  0  0
   11.3897    4.8518  -14.8135 N   0  0  0  0  0  0  0  0  0  0  0  0
   10.5103    4.5135  -13.8617 C   0  0  0  0  0  0  0  0  0  0  0  0
   10.2735    5.4380  -12.8573 C   0  0  0  0  0  0  0  0  0  0  0  0
    9.3579    4.8939  -12.0078 N   0  0  0  0  0  0  0  0  0  0  0  0
    9.0305    3.6695  -12.4629 C   0  0  0  0  0  0  0  0  0  0  0  0
    9.7381    3.4665  -13.5787 N   0  0  0  0  0  0  0  0  0  0  0  0
   12.9681    6.3168  -15.8895 N   0  0  0  0  0  0  0  0  0  0  0  0
   13.1750    7.6435  -16.4607 C   0  0  0  0  0  0  0  0  0  0  0  0
   14.3180    7.4763  -17.4245 C   0  0  0  0  0  0  0  0  0  0  0  0
   15.0268    6.2188  -16.9063 C   0  0  0  0  0  0  0  0  0  0  0  0
   13.8370    5.3523  -16.5361 C   0  0  0  0  0  0  0  0  0  0  0  0
    9.6803    2.2501  -14.3958 C   0  0  0  0  0  0  0  0  0  0  0  0
   10.2188    1.2797  -14.6740 N   0  0  0  0  0  0  0  0  0  0  0  0
    9.9145    0.2975  -15.4981 C   0  0  0  0  0  0  0  0  0  0  0  0
    8.7046    0.5093  -16.1351 C   0  0  0  0  0  0  0  0  0  0  0  0
    8.0893    2.1157  -15.4981 S   0  0  0  0  0  0  0  0  0  0  0  0
   10.6872    7.6140  -11.8192 N   0  0  0  0  0  0  0  0  0  0  0  0
    9.8271    8.1739  -11.8501 H   0  0  0  0  0  0  0  0  0  0  0  0
   11.6338    7.8165  -10.7206 C   0  0  0  0  0  0  0  0  0  0  0  0
    9.5590    7.7511   -6.9540 C   0  0  0  0  0  0  0  0  0  0  0  0
    9.5855    6.6168   -7.7458 C   0  0  0  0  0  0  0  0  0  0  0  0
   10.2601    6.6576   -8.9579 C   0  0  0  0  0  0  0  0  0  0  0  0
   10.9097    7.7729   -9.4195 C   0  0  0  0  0  0  0  0  0  0  0  0
   10.8791    8.9150   -8.6150 C   0  0  0  0  0  0  0  0  0  0  0  0
   10.2107    8.8813   -7.4098 C   0  0  0  0  0  0  0  0  0  0  0  0
 23 24  2  0  0  0
 24 25  1  0  0  0
 25 26  2  0  0  0
 26 22  1  0  0  0
 22 20  1  0  0  0
 20  1  1  0  0  0
  1  2  2  0  0  0
  2  3  1  0  0  0
  3 10  1  0  0  0
 10 11  1  0  0  0
 11 12  1  0  0  0
 12 13  1  0  0  0
 13 14  1  0  0  0
  3  4  2  0  0  0
  4  5  1  0  0  0
  5  6  2  0  0  0
  6  7  1  0  0  0
  7  8  2  0  0  0
  8  9  1  0  0  0
  9 15  1  0  0  0
 15 16  2  0  0  0
 16 17  1  0  0  0
 17 18  2  0  0  0
 18 19  1  0  0  0
 26 27  1  0  0  0
 27 28  2  0  0  0
 28 23  1  0  0  0
  6  1  1  0  0  0
 19 15  1  0  0  0
 14 10  1  0  0  0
  9  5  1  0  0  0
 20 21  1  0  0  0
M  END
> <minimizedAffinity>
-7.82001

$$$$
