6_1


 26 28  0  0  0  0  0  0  0  0999 V2000
   10.0099    6.4916  -10.4359 C   0  0  0  0  0  0  0  0  0  0  0  0
   11.0939    7.1089  -11.0137 N   0  0  0  0  0  0  0  0  0  0  0  0
   11.9904    7.7838  -10.3455 N   0  0  0  0  0  0  0  0  0  0  0  0
   13.0801    8.3810  -11.0878 C   0  0  0  0  0  0  0  0  0  0  0  0
   11.9526    7.9506   -9.0122 C   0  0  0  0  0  0  0  0  0  0  0  0
   12.8543    8.6151   -8.4404 O   0  0  0  0  0  0  0  0  0  0  0  0
   10.8983    7.3638   -8.3570 C   0  0  0  0  0  0  0  0  0  0  0  0
    9.9383    6.6399   -9.0803 C   0  0  0  0  0  0  0  0  0  0  0  0
    9.0590    6.2038   -8.1614 C   0  0  0  0  0  0  0  0  0  0  0  0
    9.4729    6.6499   -6.9156 C   0  0  0  0  0  0  0  0  0  0  0  0
   10.6015    7.3587   -7.0557 N   0  0  0  0  0  0  0  0  0  0  0  0
    8.9057    4.6230  -13.4287 C   0  0  0  0  0  0  0  0  0  0  0  0
    7.5955    4.3740  -13.1783 N   0  0  0  0  0  0  0  0  0  0  0  0
    7.0616    4.8180  -12.0230 C   0  0  0  0  0  0  0  0  0  0  0  0
    5.8351    4.5814  -11.7952 N   0  0  0  0  0  0  0  0  0  0  0  0
    5.0383    3.8533  -12.7568 C   0  0  0  0  0  0  0  0  0  0  0  0
    7.8242    5.5021  -11.1272 N   0  0  0  0  0  0  0  0  0  0  0  0
    7.3478    5.7988  -10.2884 H   0  0  0  0  0  0  0  0  0  0  0  0
    9.1113    5.7882  -11.2929 C   0  0  0  0  0  0  0  0  0  0  0  0
    9.6469    5.3141  -12.5076 C   0  0  0  0  0  0  0  0  0  0  0  0
   11.3267    7.9795   -5.9933 C   0  0  0  0  0  0  0  0  0  0  0  0
   11.2708    7.2171   -4.7003 C   0  0  0  0  0  0  0  0  0  0  0  0
   12.1160    7.7145   -3.6607 N   0  0  0  0  0  0  0  0  0  0  0  0
   13.1329    7.5641   -3.8583 H   0  0  0  0  0  0  0  0  0  0  0  0
   11.7678    6.9332   -2.4671 C   0  0  0  0  0  0  0  0  0  0  0  0
   11.8087    9.0979   -3.3383 C   0  0  0  0  0  0  0  0  0  0  0  0
 12 13  2  0  0  0
 13 14  1  0  0  0
 14 15  2  0  0  0
 15 16  1  0  0  0
 14 17  1  0  0  0
 17 18  1  0  0  0
 17 19  1  0  0  0
 19  1  1  0  0  0
  1  2  2  0  0  0
  2  3  1  0  0  0
  3  4  1  0  0  0
  3  5  1  0  0  0
  5  6  2  0  0  0
  5  7  1  0  0  0
  7  8  2  0  0  0
  8  9  1  0  0  0
  9 10  2  0  0  0
 10 11  1  0  0  0
 11 21  1  0  0  0
 21 22  1  0  0  0
 22 23  1  0  0  0
 23 24  1  0  0  0
 23 25  1  0  0  0
 23 26  1  0  0  0
 19 20  2  0  0  0
 20 12  1  0  0  0
  8  1  1  0  0  0
 11  7  1  0  0  0
M  CHG 1  23   1
M  END
> <minimizedAffinity>
-8.64203

$$$$
6_1


 26 28  0  0  0  0  0  0  0  0999 V2000
   11.4020    7.6932   -9.0999 C   0  0  0  0  0  0  0  0  0  0  0  0
   12.4597    8.1844   -9.8279 N   0  0  0  0  0  0  0  0  0  0  0  0
   12.6198    7.9825  -11.1082 N   0  0  0  0  0  0  0  0  0  0  0  0
   13.7836    8.5620  -11.7444 C   0  0  0  0  0  0  0  0  0  0  0  0
   11.7642    7.2685  -11.8600 C   0  0  0  0  0  0  0  0  0  0  0  0
   11.9878    7.1186  -13.0884 O   0  0  0  0  0  0  0  0  0  0  0  0
   10.6775    6.7412  -11.2072 C   0  0  0  0  0  0  0  0  0  0  0  0
   10.5108    6.9616   -9.8315 C   0  0  0  0  0  0  0  0  0  0  0  0
    9.3722    6.3242   -9.5074 C   0  0  0  0  0  0  0  0  0  0  0  0
    8.8618    5.7336  -10.6532 C   0  0  0  0  0  0  0  0  0  0  0  0
    9.6751    6.0001  -11.6842 N   0  0  0  0  0  0  0  0  0  0  0  0
   11.1802    9.7972   -6.0681 C   0  0  0  0  0  0  0  0  0  0  0  0
   11.2461    8.8970   -5.0550 N   0  0  0  0  0  0  0  0  0  0  0  0
   11.3643    7.5890   -5.3582 C   0  0  0  0  0  0  0  0  0  0  0  0
   11.4255    6.7520   -4.4052 N   0  0  0  0  0  0  0  0  0  0  0  0
   11.3691    7.1999   -3.0320 C   0  0  0  0  0  0  0  0  0  0  0  0
   11.4161    7.1823   -6.6559 N   0  0  0  0  0  0  0  0  0  0  0  0
   11.5049    6.1867   -6.7959 H   0  0  0  0  0  0  0  0  0  0  0  0
   11.3582    7.9949   -7.7057 C   0  0  0  0  0  0  0  0  0  0  0  0
   11.2349    9.3569   -7.3637 C   0  0  0  0  0  0  0  0  0  0  0  0
    9.4793    5.5599  -13.0288 C   0  0  0  0  0  0  0  0  0  0  0  0
    9.5155    4.0662  -13.1845 C   0  0  0  0  0  0  0  0  0  0  0  0
    8.5668    3.5250  -14.1062 N   0  0  0  0  0  0  0  0  0  0  0  0
    8.5924    3.9989  -15.0392 H   0  0  0  0  0  0  0  0  0  0  0  0
    7.2508    3.7797  -13.5065 C   0  0  0  0  0  0  0  0  0  0  0  0
    8.6874    2.0804  -14.2103 C   0  0  0  0  0  0  0  0  0  0  0  0
 12 13  2  0  0  0
 13 14  1  0  0  0
 14 15  2  0  0  0
 15 16  1  0  0  0
 14 17  1  0  0  0
 17 18  1  0  0  0
 17 19  1  0  0  0
 19  1  1  0  0  0
  1  2  2  0  0  0
  2  3  1  0  0  0
  3  4  1  0  0  0
  3  5  1  0  0  0
  5  6  2  0  0  0
  5  7  1  0  0  0
  7  8  2  0  0  0
  8  9  1  0  0  0
  9 10  2  0  0  0
 10 11  1  0  0  0
 11 21  1  0  0  0
 21 22  1  0  0  0
 22 23  1  0  0  0
 23 24  1  0  0  0
 23 25  1  0  0  0
 23 26  1  0  0  0
 19 20  2  0  0  0
 20 12  1  0  0  0
  8  1  1  0  0  0
 11  7  1  0  0  0
M  CHG 1  23   1
M  END
> <minimizedAffinity>
-7.99479

$$$$
6_1


 26 28  0  0  0  0  0  0  0  0999 V2000
   10.7127    6.9950  -10.7270 C   0  0  0  0  0  0  0  0  0  0  0  0
   11.6506    7.3899  -11.6514 N   0  0  0  0  0  0  0  0  0  0  0  0
   11.6517    7.0045  -12.8992 N   0  0  0  0  0  0  0  0  0  0  0  0
   12.7035    7.5019  -13.7602 C   0  0  0  0  0  0  0  0  0  0  0  0
   10.7317    6.1747  -13.4208 C   0  0  0  0  0  0  0  0  0  0  0  0
   10.8006    5.8493  -14.6336 O   0  0  0  0  0  0  0  0  0  0  0  0
    9.7567    5.7325  -12.5611 C   0  0  0  0  0  0  0  0  0  0  0  0
    9.7606    6.1502  -11.2216 C   0  0  0  0  0  0  0  0  0  0  0  0
    8.6958    5.5501  -10.6617 C   0  0  0  0  0  0  0  0  0  0  0  0
    8.0630    4.7897  -11.6331 C   0  0  0  0  0  0  0  0  0  0  0  0
    8.7274    4.9141  -12.7901 N   0  0  0  0  0  0  0  0  0  0  0  0
   10.9841    9.5263   -8.0462 C   0  0  0  0  0  0  0  0  0  0  0  0
   11.0760    8.7797   -6.9169 N   0  0  0  0  0  0  0  0  0  0  0  0
   11.0498    7.4364   -7.0251 C   0  0  0  0  0  0  0  0  0  0  0  0
   11.1362    6.7440   -5.9642 N   0  0  0  0  0  0  0  0  0  0  0  0
   11.2594    7.3888   -4.6764 C   0  0  0  0  0  0  0  0  0  0  0  0
   10.9332    6.8436   -8.2445 N   0  0  0  0  0  0  0  0  0  0  0  0
   10.9214    5.8344   -8.2375 H   0  0  0  0  0  0  0  0  0  0  0  0
   10.8380    7.4978   -9.3972 C   0  0  0  0  0  0  0  0  0  0  0  0
   10.8678    8.9003   -9.2586 C   0  0  0  0  0  0  0  0  0  0  0  0
    8.3758    4.2780  -14.0196 C   0  0  0  0  0  0  0  0  0  0  0  0
    7.9789    2.8380  -13.8604 C   0  0  0  0  0  0  0  0  0  0  0  0
    9.0329    1.8901  -14.0428 N   0  0  0  0  0  0  0  0  0  0  0  0
    9.6447    1.7968  -13.1986 H   0  0  0  0  0  0  0  0  0  0  0  0
    9.8530    2.4242  -15.1377 C   0  0  0  0  0  0  0  0  0  0  0  0
    8.5257    0.6104  -14.5090 C   0  0  0  0  0  0  0  0  0  0  0  0
 12 13  2  0  0  0
 13 14  1  0  0  0
 14 15  2  0  0  0
 15 16  1  0  0  0
 14 17  1  0  0  0
 17 18  1  0  0  0
 17 19  1  0  0  0
 19  1  1  0  0  0
  1  2  2  0  0  0
  2  3  1  0  0  0
  3  4  1  0  0  0
  3  5  1  0  0  0
  5  6  2  0  0  0
  5  7  1  0  0  0
  7  8  2  0  0  0
  8  9  1  0  0  0
  9 10  2  0  0  0
 10 11  1  0  0  0
 11 21  1  0  0  0
 21 22  1  0  0  0
 22 23  1  0  0  0
 23 24  1  0  0  0
 23 25  1  0  0  0
 23 26  1  0  0  0
 19 20  2  0  0  0
 20 12  1  0  0  0
  8  1  1  0  0  0
 11  7  1  0  0  0
M  CHG 1  23   1
M  END
> <minimizedAffinity>
-7.63655

$$$$
6_1


 26 28  0  0  0  0  0  0  0  0999 V2000
    9.5901    5.2243  -12.2302 C   0  0  0  0  0  0  0  0  0  0  0  0
   10.4699    5.9275  -13.0186 N   0  0  0  0  0  0  0  0  0  0  0  0
   11.2469    6.8785  -12.5744 N   0  0  0  0  0  0  0  0  0  0  0  0
   12.1243    7.5332  -13.5214 C   0  0  0  0  0  0  0  0  0  0  0  0
   11.2728    7.2775  -11.2911 C   0  0  0  0  0  0  0  0  0  0  0  0
   12.0500    8.2019  -10.9402 O   0  0  0  0  0  0  0  0  0  0  0  0
   10.4212    6.6239  -10.4352 C   0  0  0  0  0  0  0  0  0  0  0  0
    9.5888    5.6027  -10.9182 C   0  0  0  0  0  0  0  0  0  0  0  0
    8.8945    5.1776   -9.8482 C   0  0  0  0  0  0  0  0  0  0  0  0
    9.2937    5.9190   -8.7467 C   0  0  0  0  0  0  0  0  0  0  0  0
   10.2295    6.7999   -9.1260 N   0  0  0  0  0  0  0  0  0  0  0  0
    6.5447    3.5951  -13.5493 C   0  0  0  0  0  0  0  0  0  0  0  0
    7.0044    2.4136  -14.0327 N   0  0  0  0  0  0  0  0  0  0  0  0
    8.3203    2.1402  -13.9299 C   0  0  0  0  0  0  0  0  0  0  0  0
    8.7437    1.0327  -14.3844 N   0  0  0  0  0  0  0  0  0  0  0  0
    7.8298    0.0940  -14.9953 C   0  0  0  0  0  0  0  0  0  0  0  0
    9.1687    3.0338  -13.3522 N   0  0  0  0  0  0  0  0  0  0  0  0
   10.1371    2.7520  -13.3151 H   0  0  0  0  0  0  0  0  0  0  0  0
    8.8031    4.2104  -12.8545 C   0  0  0  0  0  0  0  0  0  0  0  0
    7.4233    4.4737  -12.9734 C   0  0  0  0  0  0  0  0  0  0  0  0
   10.8806    7.7376   -8.2677 C   0  0  0  0  0  0  0  0  0  0  0  0
   10.6791    7.4564   -6.8060 C   0  0  0  0  0  0  0  0  0  0  0  0
   11.0050    8.5343   -5.9259 N   0  0  0  0  0  0  0  0  0  0  0  0
   10.2053    9.1936   -5.7790 H   0  0  0  0  0  0  0  0  0  0  0  0
   12.0822    9.2736   -6.5965 C   0  0  0  0  0  0  0  0  0  0  0  0
   11.5677    8.0518   -4.6758 C   0  0  0  0  0  0  0  0  0  0  0  0
 12 13  2  0  0  0
 13 14  1  0  0  0
 14 15  2  0  0  0
 15 16  1  0  0  0
 14 17  1  0  0  0
 17 18  1  0  0  0
 17 19  1  0  0  0
 19  1  1  0  0  0
  1  2  2  0  0  0
  2  3  1  0  0  0
  3  4  1  0  0  0
  3  5  1  0  0  0
  5  6  2  0  0  0
  5  7  1  0  0  0
  7  8  2  0  0  0
  8  9  1  0  0  0
  9 10  2  0  0  0
 10 11  1  0  0  0
 11 21  1  0  0  0
 21 22  1  0  0  0
 22 23  1  0  0  0
 23 24  1  0  0  0
 23 25  1  0  0  0
 23 26  1  0  0  0
 19 20  2  0  0  0
 20 12  1  0  0  0
  8  1  1  0  0  0
 11  7  1  0  0  0
M  CHG 1  23   1
M  END
> <minimizedAffinity>
-7.59831

$$$$
6_1


 26 28  0  0  0  0  0  0  0  0999 V2000
   10.1145    5.9746  -12.5083 C   0  0  0  0  0  0  0  0  0  0  0  0
   10.8329    5.7815  -13.6643 N   0  0  0  0  0  0  0  0  0  0  0  0
   10.4400    5.0173  -14.6478 N   0  0  0  0  0  0  0  0  0  0  0  0
   11.3013    4.9085  -15.8061 C   0  0  0  0  0  0  0  0  0  0  0  0
    9.2840    4.3314  -14.6389 C   0  0  0  0  0  0  0  0  0  0  0  0
    8.9752    3.6156  -15.6257 O   0  0  0  0  0  0  0  0  0  0  0  0
    8.5050    4.4699  -13.5168 C   0  0  0  0  0  0  0  0  0  0  0  0
    8.9324    5.2925  -12.4634 C   0  0  0  0  0  0  0  0  0  0  0  0
    7.9619    5.2116  -11.5365 C   0  0  0  0  0  0  0  0  0  0  0  0
    6.9733    4.3644  -12.0130 C   0  0  0  0  0  0  0  0  0  0  0  0
    7.3237    3.9199  -13.2275 N   0  0  0  0  0  0  0  0  0  0  0  0
   12.6607    8.0937  -10.8668 C   0  0  0  0  0  0  0  0  0  0  0  0
   12.0285    8.5378   -9.7513 N   0  0  0  0  0  0  0  0  0  0  0  0
   10.7587    8.1451   -9.5272 C   0  0  0  0  0  0  0  0  0  0  0  0
   10.1732    8.5645   -8.4814 N   0  0  0  0  0  0  0  0  0  0  0  0
   10.8592    9.4412   -7.5593 C   0  0  0  0  0  0  0  0  0  0  0  0
   10.1258    7.3195  -10.4045 N   0  0  0  0  0  0  0  0  0  0  0  0
    9.1772    7.0736  -10.1626 H   0  0  0  0  0  0  0  0  0  0  0  0
   10.6696    6.8395  -11.5179 C   0  0  0  0  0  0  0  0  0  0  0  0
   11.9970    7.2637  -11.7305 C   0  0  0  0  0  0  0  0  0  0  0  0
    6.5565    3.0265  -14.0356 C   0  0  0  0  0  0  0  0  0  0  0  0
    6.0007    1.8552  -13.2769 C   0  0  0  0  0  0  0  0  0  0  0  0
    5.8827    0.6431  -14.0250 N   0  0  0  0  0  0  0  0  0  0  0  0
    4.9577    0.1720  -13.8902 H   0  0  0  0  0  0  0  0  0  0  0  0
    6.9238   -0.2462  -13.4941 C   0  0  0  0  0  0  0  0  0  0  0  0
    6.2063    0.8471  -15.4271 C   0  0  0  0  0  0  0  0  0  0  0  0
 12 13  2  0  0  0
 13 14  1  0  0  0
 14 15  2  0  0  0
 15 16  1  0  0  0
 14 17  1  0  0  0
 17 18  1  0  0  0
 17 19  1  0  0  0
 19  1  1  0  0  0
  1  2  2  0  0  0
  2  3  1  0  0  0
  3  4  1  0  0  0
  3  5  1  0  0  0
  5  6  2  0  0  0
  5  7  1  0  0  0
  7  8  2  0  0  0
  8  9  1  0  0  0
  9 10  2  0  0  0
 10 11  1  0  0  0
 11 21  1  0  0  0
 21 22  1  0  0  0
 22 23  1  0  0  0
 23 24  1  0  0  0
 23 25  1  0  0  0
 23 26  1  0  0  0
 19 20  2  0  0  0
 20 12  1  0  0  0
  8  1  1  0  0  0
 11  7  1  0  0  0
M  CHG 1  23   1
M  END
> <minimizedAffinity>
-7.25712

$$$$
