4_1


 31 35  0  0  0  0  0  0  0  0999 V2000
    9.4863    6.6115  -11.5539 C   0  0  0  0  0  0  0  0  0  0  0  0
   10.3238    6.3629  -10.4131 N   0  0  0  0  0  0  0  0  0  0  0  0
    9.4988    6.0339   -9.2365 C   0  0  0  0  0  0  0  0  0  0  0  0
   10.3340    6.1925   -7.9604 C   0  0  0  0  0  0  0  0  0  0  0  0
   10.4897    7.6554   -7.8435 N   0  0  0  0  0  0  0  0  0  0  0  0
   10.2845    8.3753   -9.0963 C   0  0  0  0  0  0  0  0  0  0  0  0
   11.0518    7.6121  -10.1484 C   0  0  0  0  0  0  0  0  0  0  0  0
   10.8069    8.2809   -6.6175 C   0  0  0  0  0  0  0  0  0  0  0  0
   10.4040    9.5952   -6.4570 C   0  0  0  0  0  0  0  0  0  0  0  0
   10.6849   10.2623   -5.2857 C   0  0  0  0  0  0  0  0  0  0  0  0
   11.3591    9.6462   -4.2727 C   0  0  0  0  0  0  0  0  0  0  0  0
   11.7555    8.3372   -4.4436 C   0  0  0  0  0  0  0  0  0  0  0  0
   11.4644    7.7013   -5.6114 N   0  0  0  0  0  0  0  0  0  0  0  0
   12.4048    7.9886   -3.2701 O   0  0  0  0  0  0  0  0  0  0  0  0
   12.1187    8.9173   -2.2513 C   0  0  0  0  0  0  0  0  0  0  0  0
   11.7778   10.0594   -3.0000 O   0  0  0  0  0  0  0  0  0  0  0  0
    9.3483    5.4103  -12.4311 C   0  0  0  0  0  0  0  0  0  0  0  0
    7.4001    1.8754  -14.0684 C   0  0  0  0  0  0  0  0  0  0  0  0
    6.2167    1.6537  -13.3951 C   0  0  0  0  0  0  0  0  0  0  0  0
    5.6440    2.6959  -12.6675 C   0  0  0  0  0  0  0  0  0  0  0  0
    6.2499    3.9133  -12.6257 C   0  0  0  0  0  0  0  0  0  0  0  0
    7.4230    4.1462  -13.2871 C   0  0  0  0  0  0  0  0  0  0  0  0
    8.0028    3.1326  -14.0100 C   0  0  0  0  0  0  0  0  0  0  0  0
    8.1304    5.4839  -13.2753 C   0  0  0  0  0  0  0  0  0  0  0  0
    7.0845    6.4929  -12.9169 C   0  0  0  0  0  0  0  0  0  0  0  0
    6.3237    6.1686  -11.6722 C   0  0  0  0  0  0  0  0  0  0  0  0
    5.6624    4.9291  -11.8986 O   0  0  0  0  0  0  0  0  0  0  0  0
    8.3476    1.2674  -16.6959 C   0  0  0  0  0  0  0  0  0  0  0  0
    8.1953    0.6408  -15.0236 S   0  0  0  0  0  0  0  0  0  0  0  0
    9.5545    0.3183  -14.5038 O   0  0  0  0  0  0  0  0  0  0  0  0
    7.2773   -0.5356  -15.1057 O   0  0  0  0  0  0  0  0  0  0  0  0
 28 29  1  0  0  0
 29 30  2  0  0  0
 29 31  2  0  0  0
 29 18  1  0  0  0
 18 19  2  0  0  0
 19 20  1  0  0  0
 20 21  2  0  0  0
 21 22  1  0  0  0
 22 23  2  0  0  0
 22 24  1  0  0  0
 24 17  1  0  0  0
 17  1  1  0  0  0
  1  2  1  0  0  0
  2  3  1  0  0  0
  3  4  1  0  0  0
  4  5  1  0  0  0
  5  8  1  0  0  0
  8  9  2  0  0  0
  9 10  1  0  0  0
 10 11  2  0  0  0
 11 12  1  0  0  0
 12 13  2  0  0  0
 12 14  1  0  0  0
 14 15  1  0  0  0
 15 16  1  0  0  0
  5  6  1  0  0  0
  6  7  1  0  0  0
 24 25  1  0  0  0
 25 26  1  0  0  0
 26 27  1  0  0  0
 23 18  1  0  0  0
  7  2  1  0  0  0
 27 21  1  0  0  0
 13  8  1  0  0  0
 16 11  1  0  0  0
M  END
> <minimizedAffinity>
-10.54280

$$$$
4_1


 31 35  0  0  0  0  0  0  0  0999 V2000
    8.2707    4.6551  -13.2124 C   0  0  0  0  0  0  0  0  0  0  0  0
    8.5407    5.9504  -12.6521 N   0  0  0  0  0  0  0  0  0  0  0  0
    9.9950    6.1720  -12.5568 C   0  0  0  0  0  0  0  0  0  0  0  0
   10.2783    7.3285  -11.5907 C   0  0  0  0  0  0  0  0  0  0  0  0
    9.9556    6.7484  -10.2726 N   0  0  0  0  0  0  0  0  0  0  0  0
    9.0771    5.5848  -10.3361 C   0  0  0  0  0  0  0  0  0  0  0  0
    7.9711    5.9470  -11.2971 C   0  0  0  0  0  0  0  0  0  0  0  0
   10.4654    7.2870   -9.0705 C   0  0  0  0  0  0  0  0  0  0  0  0
   10.9265    8.5914   -9.1093 C   0  0  0  0  0  0  0  0  0  0  0  0
   11.4382    9.1739   -7.9714 C   0  0  0  0  0  0  0  0  0  0  0  0
   11.4996    8.4827   -6.7972 C   0  0  0  0  0  0  0  0  0  0  0  0
   11.0375    7.1844   -6.7703 C   0  0  0  0  0  0  0  0  0  0  0  0
   10.5364    6.6332   -7.9096 N   0  0  0  0  0  0  0  0  0  0  0  0
   11.2255    6.7492   -5.4682 O   0  0  0  0  0  0  0  0  0  0  0  0
   11.4621    7.8406   -4.6108 C   0  0  0  0  0  0  0  0  0  0  0  0
   11.9566    8.8030   -5.5110 O   0  0  0  0  0  0  0  0  0  0  0  0
    7.0459    4.0277  -12.6312 C   0  0  0  0  0  0  0  0  0  0  0  0
    9.1967    1.5419  -15.4889 C   0  0  0  0  0  0  0  0  0  0  0  0
    9.0918    0.2190  -15.1122 C   0  0  0  0  0  0  0  0  0  0  0  0
    8.0797   -0.1578  -14.2305 C   0  0  0  0  0  0  0  0  0  0  0  0
    7.2103    0.7724  -13.7511 C   0  0  0  0  0  0  0  0  0  0  0  0
    7.3035    2.0863  -14.1151 C   0  0  0  0  0  0  0  0  0  0  0  0
    8.2933    2.4776  -14.9832 C   0  0  0  0  0  0  0  0  0  0  0  0
    6.3569    3.1551  -13.6136 C   0  0  0  0  0  0  0  0  0  0  0  0
    5.1248    2.4302  -13.1698 C   0  0  0  0  0  0  0  0  0  0  0  0
    5.3847    1.3145  -12.2103 C   0  0  0  0  0  0  0  0  0  0  0  0
    6.2166    0.3738  -12.8797 O   0  0  0  0  0  0  0  0  0  0  0  0
   11.4125    3.3313  -15.7317 C   0  0  0  0  0  0  0  0  0  0  0  0
   10.4204    2.1186  -16.6019 S   0  0  0  0  0  0  0  0  0  0  0  0
   11.3087    1.0199  -17.0769 O   0  0  0  0  0  0  0  0  0  0  0  0
    9.7277    2.8617  -17.6980 O   0  0  0  0  0  0  0  0  0  0  0  0
 28 29  1  0  0  0
 29 30  2  0  0  0
 29 31  2  0  0  0
 29 18  1  0  0  0
 18 19  2  0  0  0
 19 20  1  0  0  0
 20 21  2  0  0  0
 21 22  1  0  0  0
 22 23  2  0  0  0
 22 24  1  0  0  0
 24 17  1  0  0  0
 17  1  1  0  0  0
  1  2  1  0  0  0
  2  3  1  0  0  0
  3  4  1  0  0  0
  4  5  1  0  0  0
  5  8  1  0  0  0
  8  9  2  0  0  0
  9 10  1  0  0  0
 10 11  2  0  0  0
 11 12  1  0  0  0
 12 13  2  0  0  0
 12 14  1  0  0  0
 14 15  1  0  0  0
 15 16  1  0  0  0
  5  6  1  0  0  0
  6  7  1  0  0  0
 24 25  1  0  0  0
 25 26  1  0  0  0
 26 27  1  0  0  0
 23 18  1  0  0  0
  7  2  1  0  0  0
 27 21  1  0  0  0
 13  8  1  0  0  0
 16 11  1  0  0  0
M  END
> <minimizedAffinity>
-9.43181

$$$$
4_1


 31 35  0  0  0  0  0  0  0  0999 V2000
    8.8262    5.7045  -13.2310 C   0  0  0  0  0  0  0  0  0  0  0  0
    8.5077    6.5943  -12.1486 N   0  0  0  0  0  0  0  0  0  0  0  0
    9.4886    7.6931  -12.0859 C   0  0  0  0  0  0  0  0  0  0  0  0
    9.4112    8.3759  -10.7152 C   0  0  0  0  0  0  0  0  0  0  0  0
    9.9983    7.3704   -9.8083 N   0  0  0  0  0  0  0  0  0  0  0  0
    9.9828    6.0115  -10.3403 C   0  0  0  0  0  0  0  0  0  0  0  0
    8.6026    5.8020  -10.9141 C   0  0  0  0  0  0  0  0  0  0  0  0
   10.5242    7.7163   -8.5439 C   0  0  0  0  0  0  0  0  0  0  0  0
   11.0235    8.9989   -8.3978 C   0  0  0  0  0  0  0  0  0  0  0  0
   11.5526    9.3973   -7.1907 C   0  0  0  0  0  0  0  0  0  0  0  0
   11.5943    8.5436   -6.1278 C   0  0  0  0  0  0  0  0  0  0  0  0
   11.0944    7.2688   -6.2848 C   0  0  0  0  0  0  0  0  0  0  0  0
   10.5767    6.9012   -7.4889 N   0  0  0  0  0  0  0  0  0  0  0  0
   11.2702    6.6463   -5.0593 O   0  0  0  0  0  0  0  0  0  0  0  0
   11.5393    7.5964   -4.0557 C   0  0  0  0  0  0  0  0  0  0  0  0
   12.0612    8.6630   -4.8112 O   0  0  0  0  0  0  0  0  0  0  0  0
    8.5180    4.2795  -12.9056 C   0  0  0  0  0  0  0  0  0  0  0  0
    7.1454    0.7582  -15.0708 C   0  0  0  0  0  0  0  0  0  0  0  0
    7.2838    0.9736  -16.4264 C   0  0  0  0  0  0  0  0  0  0  0  0
    8.1403    1.9803  -16.8700 C   0  0  0  0  0  0  0  0  0  0  0  0
    8.8273    2.7372  -15.9722 C   0  0  0  0  0  0  0  0  0  0  0  0
    8.6987    2.5353  -14.6267 C   0  0  0  0  0  0  0  0  0  0  0  0
    7.8604    1.5481  -14.1696 C   0  0  0  0  0  0  0  0  0  0  0  0
    9.4461    3.3467  -13.5910 C   0  0  0  0  0  0  0  0  0  0  0  0
   10.6277    3.9258  -14.3044 C   0  0  0  0  0  0  0  0  0  0  0  0
   10.2834    4.6630  -15.5579 C   0  0  0  0  0  0  0  0  0  0  0  0
    9.6695    3.7274  -16.4369 O   0  0  0  0  0  0  0  0  0  0  0  0
    4.5349    0.2717  -14.0128 C   0  0  0  0  0  0  0  0  0  0  0  0
    6.1089   -0.4889  -14.4081 S   0  0  0  0  0  0  0  0  0  0  0  0
    5.8786   -1.5992  -15.3756 O   0  0  0  0  0  0  0  0  0  0  0  0
    6.6952   -0.9257  -13.1047 O   0  0  0  0  0  0  0  0  0  0  0  0
 28 29  1  0  0  0
 29 30  2  0  0  0
 29 31  2  0  0  0
 29 18  1  0  0  0
 18 19  2  0  0  0
 19 20  1  0  0  0
 20 21  2  0  0  0
 21 22  1  0  0  0
 22 23  2  0  0  0
 22 24  1  0  0  0
 24 17  1  0  0  0
 17  1  1  0  0  0
  1  2  1  0  0  0
  2  3  1  0  0  0
  3  4  1  0  0  0
  4  5  1  0  0  0
  5  8  1  0  0  0
  8  9  2  0  0  0
  9 10  1  0  0  0
 10 11  2  0  0  0
 11 12  1  0  0  0
 12 13  2  0  0  0
 12 14  1  0  0  0
 14 15  1  0  0  0
 15 16  1  0  0  0
  5  6  1  0  0  0
  6  7  1  0  0  0
 24 25  1  0  0  0
 25 26  1  0  0  0
 26 27  1  0  0  0
 23 18  1  0  0  0
  7  2  1  0  0  0
 27 21  1  0  0  0
 13  8  1  0  0  0
 16 11  1  0  0  0
M  END
> <minimizedAffinity>
-9.02015

$$$$
4_1


 31 35  0  0  0  0  0  0  0  0999 V2000
   10.0044    4.6674  -13.4266 C   0  0  0  0  0  0  0  0  0  0  0  0
    9.7425    3.2550  -13.4628 N   0  0  0  0  0  0  0  0  0  0  0  0
   10.4789    2.6279  -14.5753 C   0  0  0  0  0  0  0  0  0  0  0  0
    9.8812    1.2484  -14.8766 C   0  0  0  0  0  0  0  0  0  0  0  0
    8.5825    1.5759  -15.4965 N   0  0  0  0  0  0  0  0  0  0  0  0
    8.0996    2.9178  -15.1870 C   0  0  0  0  0  0  0  0  0  0  0  0
    8.3002    3.1031  -13.7025 C   0  0  0  0  0  0  0  0  0  0  0  0
    7.8885    0.6573  -16.3146 C   0  0  0  0  0  0  0  0  0  0  0  0
    8.0242    0.8045  -17.6842 C   0  0  0  0  0  0  0  0  0  0  0  0
    7.3711   -0.0575  -18.5364 C   0  0  0  0  0  0  0  0  0  0  0  0
    6.5858   -1.0617  -18.0512 C   0  0  0  0  0  0  0  0  0  0  0  0
    6.4579   -1.1987  -16.6857 C   0  0  0  0  0  0  0  0  0  0  0  0
    7.1150   -0.3331  -15.8661 N   0  0  0  0  0  0  0  0  0  0  0  0
    5.6155   -2.2827  -16.4977 O   0  0  0  0  0  0  0  0  0  0  0  0
    5.4994   -3.0312  -17.6846 C   0  0  0  0  0  0  0  0  0  0  0  0
    5.8179   -2.0656  -18.6578 O   0  0  0  0  0  0  0  0  0  0  0  0
    9.9490    5.2210  -12.0403 C   0  0  0  0  0  0  0  0  0  0  0  0
   10.9734    7.5105   -8.4793 C   0  0  0  0  0  0  0  0  0  0  0  0
   12.2514    8.0127   -8.6119 C   0  0  0  0  0  0  0  0  0  0  0  0
   12.8223    8.0897   -9.8815 C   0  0  0  0  0  0  0  0  0  0  0  0
   12.1228    7.6726  -10.9713 C   0  0  0  0  0  0  0  0  0  0  0  0
   10.8566    7.1721  -10.8541 C   0  0  0  0  0  0  0  0  0  0  0  0
   10.2762    7.0886   -9.6121 C   0  0  0  0  0  0  0  0  0  0  0  0
   10.0376    6.7021  -12.0366 C   0  0  0  0  0  0  0  0  0  0  0  0
   10.6310    7.3755  -13.2345 C   0  0  0  0  0  0  0  0  0  0  0  0
   12.1071    7.1874  -13.3724 C   0  0  0  0  0  0  0  0  0  0  0  0
   12.7102    7.7597  -12.2175 O   0  0  0  0  0  0  0  0  0  0  0  0
    9.7605    9.0479   -6.3969 C   0  0  0  0  0  0  0  0  0  0  0  0
   10.1577    7.3847   -6.9340 S   0  0  0  0  0  0  0  0  0  0  0  0
    8.8974    6.5944   -7.0279 O   0  0  0  0  0  0  0  0  0  0  0  0
   11.1397    6.8536   -5.9406 O   0  0  0  0  0  0  0  0  0  0  0  0
 28 29  1  0  0  0
 29 30  2  0  0  0
 29 31  2  0  0  0
 29 18  1  0  0  0
 18 19  2  0  0  0
 19 20  1  0  0  0
 20 21  2  0  0  0
 21 22  1  0  0  0
 22 23  2  0  0  0
 22 24  1  0  0  0
 24 17  1  0  0  0
 17  1  1  0  0  0
  1  2  1  0  0  0
  2  3  1  0  0  0
  3  4  1  0  0  0
  4  5  1  0  0  0
  5  8  1  0  0  0
  8  9  2  0  0  0
  9 10  1  0  0  0
 10 11  2  0  0  0
 11 12  1  0  0  0
 12 13  2  0  0  0
 12 14  1  0  0  0
 14 15  1  0  0  0
 15 16  1  0  0  0
  5  6  1  0  0  0
  6  7  1  0  0  0
 24 25  1  0  0  0
 25 26  1  0  0  0
 26 27  1  0  0  0
 23 18  1  0  0  0
  7  2  1  0  0  0
 27 21  1  0  0  0
 13  8  1  0  0  0
 16 11  1  0  0  0
M  END
> <minimizedAffinity>
-8.61882

$$$$
4_1


 31 35  0  0  0  0  0  0  0  0999 V2000
   11.7596    7.3428  -13.0878 C   0  0  0  0  0  0  0  0  0  0  0  0
   12.5917    6.4274  -13.8188 N   0  0  0  0  0  0  0  0  0  0  0  0
   12.3937    6.6046  -15.2689 C   0  0  0  0  0  0  0  0  0  0  0  0
   12.9307    5.3781  -16.0163 C   0  0  0  0  0  0  0  0  0  0  0  0
   11.9474    4.3288  -15.6847 N   0  0  0  0  0  0  0  0  0  0  0  0
   11.1689    4.6049  -14.4816 C   0  0  0  0  0  0  0  0  0  0  0  0
   12.1570    5.0747  -13.4419 C   0  0  0  0  0  0  0  0  0  0  0  0
   11.7899    3.1703  -16.4772 C   0  0  0  0  0  0  0  0  0  0  0  0
   12.5289    3.1000  -17.6454 C   0  0  0  0  0  0  0  0  0  0  0  0
   12.4184    1.9980  -18.4636 C   0  0  0  0  0  0  0  0  0  0  0  0
   11.5868    0.9662  -18.1409 C   0  0  0  0  0  0  0  0  0  0  0  0
   10.8558    1.0471  -16.9753 C   0  0  0  0  0  0  0  0  0  0  0  0
   10.9844    2.1477  -16.1847 N   0  0  0  0  0  0  0  0  0  0  0  0
   10.1174   -0.1241  -16.9168 O   0  0  0  0  0  0  0  0  0  0  0  0
   10.6260   -1.0755  -17.8215 C   0  0  0  0  0  0  0  0  0  0  0  0
   11.2738   -0.2517  -18.7610 O   0  0  0  0  0  0  0  0  0  0  0  0
   12.2104    7.5170  -11.6743 C   0  0  0  0  0  0  0  0  0  0  0  0
    8.4734    5.4057  -10.9335 C   0  0  0  0  0  0  0  0  0  0  0  0
    8.4655    4.9334   -9.6374 C   0  0  0  0  0  0  0  0  0  0  0  0
    9.3418    5.4898   -8.7067 C   0  0  0  0  0  0  0  0  0  0  0  0
   10.1915    6.4852   -9.0786 C   0  0  0  0  0  0  0  0  0  0  0  0
   10.2105    6.9615  -10.3594 C   0  0  0  0  0  0  0  0  0  0  0  0
    9.3546    6.4270  -11.2910 C   0  0  0  0  0  0  0  0  0  0  0  0
   11.1323    8.0704  -10.8183 C   0  0  0  0  0  0  0  0  0  0  0  0
   11.5268    8.8096   -9.5780 C   0  0  0  0  0  0  0  0  0  0  0  0
   12.0759    7.9377   -8.4957 C   0  0  0  0  0  0  0  0  0  0  0  0
   11.0490    7.0198   -8.1382 O   0  0  0  0  0  0  0  0  0  0  0  0
    6.6136    6.1950  -12.9557 C   0  0  0  0  0  0  0  0  0  0  0  0
    7.4042    4.7880  -12.1762 S   0  0  0  0  0  0  0  0  0  0  0  0
    8.1404    4.0121  -13.2144 O   0  0  0  0  0  0  0  0  0  0  0  0
    6.3125    4.0228  -11.5009 O   0  0  0  0  0  0  0  0  0  0  0  0
 28 29  1  0  0  0
 29 30  2  0  0  0
 29 31  2  0  0  0
 29 18  1  0  0  0
 18 19  2  0  0  0
 19 20  1  0  0  0
 20 21  2  0  0  0
 21 22  1  0  0  0
 22 23  2  0  0  0
 22 24  1  0  0  0
 24 17  1  0  0  0
 17  1  1  0  0  0
  1  2  1  0  0  0
  2  3  1  0  0  0
  3  4  1  0  0  0
  4  5  1  0  0  0
  5  8  1  0  0  0
  8  9  2  0  0  0
  9 10  1  0  0  0
 10 11  2  0  0  0
 11 12  1  0  0  0
 12 13  2  0  0  0
 12 14  1  0  0  0
 14 15  1  0  0  0
 15 16  1  0  0  0
  5  6  1  0  0  0
  6  7  1  0  0  0
 24 25  1  0  0  0
 25 26  1  0  0  0
 26 27  1  0  0  0
 23 18  1  0  0  0
  7  2  1  0  0  0
 27 21  1  0  0  0
 13  8  1  0  0  0
 16 11  1  0  0  0
M  END
> <minimizedAffinity>
-8.32822

$$$$
4_1


 31 35  0  0  0  0  0  0  0  0999 V2000
    8.6791    5.5827  -13.2768 C   0  0  0  0  0  0  0  0  0  0  0  0
    8.3665    6.4417  -12.1682 N   0  0  0  0  0  0  0  0  0  0  0  0
    9.2866    7.5931  -12.1395 C   0  0  0  0  0  0  0  0  0  0  0  0
    9.2404    8.2559  -10.7576 C   0  0  0  0  0  0  0  0  0  0  0  0
    9.9273    7.2754   -9.8945 N   0  0  0  0  0  0  0  0  0  0  0  0
    9.9608    5.9236  -10.4433 C   0  0  0  0  0  0  0  0  0  0  0  0
    8.5672    5.6429  -10.9506 C   0  0  0  0  0  0  0  0  0  0  0  0
   10.4961    7.6370   -8.6533 C   0  0  0  0  0  0  0  0  0  0  0  0
   11.1369    8.8619   -8.5859 C   0  0  0  0  0  0  0  0  0  0  0  0
   11.7144    9.2717   -7.4050 C   0  0  0  0  0  0  0  0  0  0  0  0
   11.6664    8.4855   -6.2915 C   0  0  0  0  0  0  0  0  0  0  0  0
   11.0257    7.2677   -6.3703 C   0  0  0  0  0  0  0  0  0  0  0  0
   10.4629    6.8874   -7.5500 N   0  0  0  0  0  0  0  0  0  0  0  0
   11.1377    6.7057   -5.1086 O   0  0  0  0  0  0  0  0  0  0  0  0
   11.5175    7.6793   -4.1651 C   0  0  0  0  0  0  0  0  0  0  0  0
   12.1514    8.6322   -4.9843 O   0  0  0  0  0  0  0  0  0  0  0  0
    8.3157    4.1580  -13.0130 C   0  0  0  0  0  0  0  0  0  0  0  0
   10.7199    2.9941  -16.4535 C   0  0  0  0  0  0  0  0  0  0  0  0
   10.8411    1.6202  -16.4815 C   0  0  0  0  0  0  0  0  0  0  0  0
    9.9370    0.8439  -15.7578 C   0  0  0  0  0  0  0  0  0  0  0  0
    8.9505    1.4401  -15.0351 C   0  0  0  0  0  0  0  0  0  0  0  0
    8.8197    2.7999  -14.9977 C   0  0  0  0  0  0  0  0  0  0  0  0
    9.7000    3.5822  -15.7043 C   0  0  0  0  0  0  0  0  0  0  0  0
    7.7358    3.5078  -14.2140 C   0  0  0  0  0  0  0  0  0  0  0  0
    6.6527    2.4944  -14.0130 C   0  0  0  0  0  0  0  0  0  0  0  0
    7.1239    1.2062  -13.4196 C   0  0  0  0  0  0  0  0  0  0  0  0
    8.0675    0.6493  -14.3275 O   0  0  0  0  0  0  0  0  0  0  0  0
   13.0309    4.6553  -16.1874 C   0  0  0  0  0  0  0  0  0  0  0  0
   11.7919    4.0605  -17.3380 S   0  0  0  0  0  0  0  0  0  0  0  0
   12.4750    3.3615  -18.4634 O   0  0  0  0  0  0  0  0  0  0  0  0
   11.0035    5.2605  -17.7523 O   0  0  0  0  0  0  0  0  0  0  0  0
 28 29  1  0  0  0
 29 30  2  0  0  0
 29 31  2  0  0  0
 29 18  1  0  0  0
 18 19  2  0  0  0
 19 20  1  0  0  0
 20 21  2  0  0  0
 21 22  1  0  0  0
 22 23  2  0  0  0
 22 24  1  0  0  0
 24 17  1  0  0  0
 17  1  1  0  0  0
  1  2  1  0  0  0
  2  3  1  0  0  0
  3  4  1  0  0  0
  4  5  1  0  0  0
  5  8  1  0  0  0
  8  9  2  0  0  0
  9 10  1  0  0  0
 10 11  2  0  0  0
 11 12  1  0  0  0
 12 13  2  0  0  0
 12 14  1  0  0  0
 14 15  1  0  0  0
 15 16  1  0  0  0
  5  6  1  0  0  0
  6  7  1  0  0  0
 24 25  1  0  0  0
 25 26  1  0  0  0
 26 27  1  0  0  0
 23 18  1  0  0  0
  7  2  1  0  0  0
 27 21  1  0  0  0
 13  8  1  0  0  0
 16 11  1  0  0  0
M  END
> <minimizedAffinity>
-8.19497

$$$$
