15_0


 22 25  0  0  0  0  0  0  0  0999 V2000
   11.7147    7.3410  -11.7146 C   0  0  0  0  0  0  0  0  0  0  0  0
   12.7174    7.6028  -10.8623 N   0  0  0  0  0  0  0  0  0  0  0  0
   12.1722    8.0099   -9.6912 C   0  0  0  0  0  0  0  0  0  0  0  0
   12.7195    8.3984   -8.4955 C   0  0  0  0  0  0  0  0  0  0  0  0
   11.9607    8.7684   -7.4503 N   0  0  0  0  0  0  0  0  0  0  0  0
   10.6212    8.7463   -7.6145 C   0  0  0  0  0  0  0  0  0  0  0  0
   10.0268    8.3646   -8.7933 C   0  0  0  0  0  0  0  0  0  0  0  0
   10.8130    7.9825   -9.8725 C   0  0  0  0  0  0  0  0  0  0  0  0
   10.5266    7.5667  -11.1306 N   0  0  0  0  0  0  0  0  0  0  0  0
   13.0534    8.0935  -16.4564 C   0  0  0  0  0  0  0  0  0  0  0  0
   12.5191    7.1993  -15.3753 C   0  0  0  0  0  0  0  0  0  0  0  0
   12.1724    5.8985  -15.6589 C   0  0  0  0  0  0  0  0  0  0  0  0
   11.6908    5.0949  -14.6814 N   0  0  0  0  0  0  0  0  0  0  0  0
   11.5491    5.5744  -13.4149 C   0  0  0  0  0  0  0  0  0  0  0  0
   11.8852    6.8760  -13.0855 C   0  0  0  0  0  0  0  0  0  0  0  0
   12.3816    7.7038  -14.0930 C   0  0  0  0  0  0  0  0  0  0  0  0
    9.2125    7.4340  -11.6217 C   0  0  0  0  0  0  0  0  0  0  0  0
    8.5285    6.2372  -11.6967 C   0  0  0  0  0  0  0  0  0  0  0  0
    7.2238    6.1988  -12.1991 C   0  0  0  0  0  0  0  0  0  0  0  0
    6.6005    7.3536  -12.6270 C   0  0  0  0  0  0  0  0  0  0  0  0
    7.2895    8.5543  -12.5506 C   0  0  0  0  0  0  0  0  0  0  0  0
    8.5855    8.6035  -12.0534 C   0  0  0  0  0  0  0  0  0  0  0  0
 10 11  1  0  0  0
 11 12  2  0  0  0
 12 13  1  0  0  0
 13 14  2  0  0  0
 14 15  1  0  0  0
 15  1  1  0  0  0
  1  2  2  0  0  0
  2  3  1  0  0  0
  3  4  2  0  0  0
  4  5  1  0  0  0
  5  6  2  0  0  0
  6  7  1  0  0  0
  7  8  2  0  0  0
  8  9  1  0  0  0
  9 17  1  0  0  0
 17 18  2  0  0  0
 18 19  1  0  0  0
 19 20  2  0  0  0
 20 21  1  0  0  0
 21 22  2  0  0  0
 15 16  2  0  0  0
 16 11  1  0  0  0
  9  1  1  0  0  0
 22 17  1  0  0  0
  8  3  1  0  0  0
M  END
> <minimizedAffinity>
-8.77570

$$$$
15_0


 22 25  0  0  0  0  0  0  0  0999 V2000
    7.8723    4.7449  -12.0881 C   0  0  0  0  0  0  0  0  0  0  0  0
    6.6778    4.2997  -11.6695 N   0  0  0  0  0  0  0  0  0  0  0  0
    6.2847    3.3117  -12.5085 C   0  0  0  0  0  0  0  0  0  0  0  0
    5.1668    2.5190  -12.5533 C   0  0  0  0  0  0  0  0  0  0  0  0
    4.9928    1.5841  -13.5023 N   0  0  0  0  0  0  0  0  0  0  0  0
    5.9670    1.4456  -14.4262 C   0  0  0  0  0  0  0  0  0  0  0  0
    7.1048    2.2164  -14.4223 C   0  0  0  0  0  0  0  0  0  0  0  0
    7.2827    3.1823  -13.4403 C   0  0  0  0  0  0  0  0  0  0  0  0
    8.2711    4.0730  -13.1804 N   0  0  0  0  0  0  0  0  0  0  0  0
   10.4815    6.5636   -8.2504 C   0  0  0  0  0  0  0  0  0  0  0  0
    9.8966    6.7197   -9.6242 C   0  0  0  0  0  0  0  0  0  0  0  0
   10.0710    7.8913  -10.3238 C   0  0  0  0  0  0  0  0  0  0  0  0
    9.5422    8.0286  -11.5625 N   0  0  0  0  0  0  0  0  0  0  0  0
    8.8360    7.0054  -12.1178 C   0  0  0  0  0  0  0  0  0  0  0  0
    8.6360    5.8098  -11.4499 C   0  0  0  0  0  0  0  0  0  0  0  0
    9.1813    5.6686  -10.1733 C   0  0  0  0  0  0  0  0  0  0  0  0
    9.4373    4.1855  -13.9632 C   0  0  0  0  0  0  0  0  0  0  0  0
    9.5127    4.8902  -15.1479 C   0  0  0  0  0  0  0  0  0  0  0  0
   10.7146    4.9486  -15.8607 C   0  0  0  0  0  0  0  0  0  0  0  0
   11.8420    4.3042  -15.3927 C   0  0  0  0  0  0  0  0  0  0  0  0
   11.7638    3.5971  -14.2026 C   0  0  0  0  0  0  0  0  0  0  0  0
   10.5752    3.5329  -13.4870 C   0  0  0  0  0  0  0  0  0  0  0  0
 10 11  1  0  0  0
 11 12  2  0  0  0
 12 13  1  0  0  0
 13 14  2  0  0  0
 14 15  1  0  0  0
 15  1  1  0  0  0
  1  2  2  0  0  0
  2  3  1  0  0  0
  3  4  2  0  0  0
  4  5  1  0  0  0
  5  6  2  0  0  0
  6  7  1  0  0  0
  7  8  2  0  0  0
  8  9  1  0  0  0
  9 17  1  0  0  0
 17 18  2  0  0  0
 18 19  1  0  0  0
 19 20  2  0  0  0
 20 21  1  0  0  0
 21 22  2  0  0  0
 15 16  2  0  0  0
 16 11  1  0  0  0
  9  1  1  0  0  0
 22 17  1  0  0  0
  8  3  1  0  0  0
M  END
> <minimizedAffinity>
-8.00474

$$$$
15_0


 22 25  0  0  0  0  0  0  0  0999 V2000
    6.9997    3.1483  -13.3715 C   0  0  0  0  0  0  0  0  0  0  0  0
    5.8610    2.5854  -12.9391 N   0  0  0  0  0  0  0  0  0  0  0  0
    5.7166    1.3979  -13.5741 C   0  0  0  0  0  0  0  0  0  0  0  0
    4.7539    0.4232  -13.5169 C   0  0  0  0  0  0  0  0  0  0  0  0
    4.8261   -0.6953  -14.2577 N   0  0  0  0  0  0  0  0  0  0  0  0
    5.8921   -0.8338  -15.0740 C   0  0  0  0  0  0  0  0  0  0  0  0
    6.8818    0.1153  -15.1654 C   0  0  0  0  0  0  0  0  0  0  0  0
    6.8052    1.2708  -14.3987 C   0  0  0  0  0  0  0  0  0  0  0  0
    7.6044    2.3587  -14.2739 N   0  0  0  0  0  0  0  0  0  0  0  0
    6.4599    8.0411  -12.5889 C   0  0  0  0  0  0  0  0  0  0  0  0
    7.2927    6.7930  -12.5362 C   0  0  0  0  0  0  0  0  0  0  0  0
    8.5822    6.8388  -12.0590 C   0  0  0  0  0  0  0  0  0  0  0  0
    9.3304    5.7113  -12.0128 N   0  0  0  0  0  0  0  0  0  0  0  0
    8.8062    4.5293  -12.4394 C   0  0  0  0  0  0  0  0  0  0  0  0
    7.5141    4.4376  -12.9269 C   0  0  0  0  0  0  0  0  0  0  0  0
    6.7433    5.5997  -12.9742 C   0  0  0  0  0  0  0  0  0  0  0  0
    8.8043    2.5243  -14.9938 C   0  0  0  0  0  0  0  0  0  0  0  0
   10.0230    2.0077  -14.6018 C   0  0  0  0  0  0  0  0  0  0  0  0
   11.1652    2.2220  -15.3800 C   0  0  0  0  0  0  0  0  0  0  0  0
   11.0929    2.9514  -16.5495 C   0  0  0  0  0  0  0  0  0  0  0  0
    9.8678    3.4692  -16.9412 C   0  0  0  0  0  0  0  0  0  0  0  0
    8.7275    3.2623  -16.1757 C   0  0  0  0  0  0  0  0  0  0  0  0
 10 11  1  0  0  0
 11 12  2  0  0  0
 12 13  1  0  0  0
 13 14  2  0  0  0
 14 15  1  0  0  0
 15  1  1  0  0  0
  1  2  2  0  0  0
  2  3  1  0  0  0
  3  4  2  0  0  0
  4  5  1  0  0  0
  5  6  2  0  0  0
  6  7  1  0  0  0
  7  8  2  0  0  0
  8  9  1  0  0  0
  9 17  1  0  0  0
 17 18  2  0  0  0
 18 19  1  0  0  0
 19 20  2  0  0  0
 20 21  1  0  0  0
 21 22  2  0  0  0
 15 16  2  0  0  0
 16 11  1  0  0  0
  9  1  1  0  0  0
 22 17  1  0  0  0
  8  3  1  0  0  0
M  END
> <minimizedAffinity>
-7.60864

$$$$
15_0


 22 25  0  0  0  0  0  0  0  0999 V2000
    8.6582    3.8802  -13.7918 C   0  0  0  0  0  0  0  0  0  0  0  0
    7.8078    2.9210  -13.3954 N   0  0  0  0  0  0  0  0  0  0  0  0
    7.9222    1.8818  -14.2564 C   0  0  0  0  0  0  0  0  0  0  0  0
    7.3025    0.6608  -14.3285 C   0  0  0  0  0  0  0  0  0  0  0  0
    7.5863   -0.2272  -15.2960 N   0  0  0  0  0  0  0  0  0  0  0  0
    8.5148    0.1237  -16.2106 C   0  0  0  0  0  0  0  0  0  0  0  0
    9.1623    1.3355  -16.1795 C   0  0  0  0  0  0  0  0  0  0  0  0
    8.8676    2.2520  -15.1785 C   0  0  0  0  0  0  0  0  0  0  0  0
    9.3265    3.4948  -14.8910 N   0  0  0  0  0  0  0  0  0  0  0  0
   11.5409    7.3370  -11.6508 C   0  0  0  0  0  0  0  0  0  0  0  0
   10.1899    6.8504  -12.0891 C   0  0  0  0  0  0  0  0  0  0  0  0
    9.0704    7.6187  -11.8681 C   0  0  0  0  0  0  0  0  0  0  0  0
    7.8536    7.1768  -12.2647 N   0  0  0  0  0  0  0  0  0  0  0  0
    7.7369    5.9696  -12.8836 C   0  0  0  0  0  0  0  0  0  0  0  0
    8.8362    5.1644  -13.1257 C   0  0  0  0  0  0  0  0  0  0  0  0
   10.0900    5.6202  -12.7170 C   0  0  0  0  0  0  0  0  0  0  0  0
   10.3077    4.1542  -15.6578 C   0  0  0  0  0  0  0  0  0  0  0  0
   10.0310    5.0865  -16.6376 C   0  0  0  0  0  0  0  0  0  0  0  0
   11.0703    5.6926  -17.3508 C   0  0  0  0  0  0  0  0  0  0  0  0
   12.3861    5.3693  -17.0874 C   0  0  0  0  0  0  0  0  0  0  0  0
   12.6615    4.4326  -16.1029 C   0  0  0  0  0  0  0  0  0  0  0  0
   11.6368    3.8249  -15.3889 C   0  0  0  0  0  0  0  0  0  0  0  0
 10 11  1  0  0  0
 11 12  2  0  0  0
 12 13  1  0  0  0
 13 14  2  0  0  0
 14 15  1  0  0  0
 15  1  1  0  0  0
  1  2  2  0  0  0
  2  3  1  0  0  0
  3  4  2  0  0  0
  4  5  1  0  0  0
  5  6  2  0  0  0
  6  7  1  0  0  0
  7  8  2  0  0  0
  8  9  1  0  0  0
  9 17  1  0  0  0
 17 18  2  0  0  0
 18 19  1  0  0  0
 19 20  2  0  0  0
 20 21  1  0  0  0
 21 22  2  0  0  0
 15 16  2  0  0  0
 16 11  1  0  0  0
  9  1  1  0  0  0
 22 17  1  0  0  0
  8  3  1  0  0  0
M  END
> <minimizedAffinity>
-7.16415

$$$$
