2_0


 42 45  0  0  0  0  0  0  0  0999 V2000
   10.0843    5.8182  -12.6172 C   0  0  0  0  0  0  0  0  0  0  0  0
   11.3459    6.1937  -12.9880 C   0  0  0  0  0  0  0  0  0  0  0  0
   11.9700    5.7248  -14.1478 C   0  0  0  0  0  0  0  0  0  0  0  0
   11.3058    4.8452  -14.9618 C   0  0  0  0  0  0  0  0  0  0  0  0
   10.0313    4.4543  -14.6034 C   0  0  0  0  0  0  0  0  0  0  0  0
    9.3962    4.9167  -13.4536 C   0  0  0  0  0  0  0  0  0  0  0  0
   12.0502    4.2544  -16.4479 S   0  0  0  0  0  0  0  0  0  0  0  0
   11.3857    4.8290  -17.6452 O   0  0  0  0  0  0  0  0  0  0  0  0
   12.0081    2.7463  -16.4662 O   0  0  0  0  0  0  0  0  0  0  0  0
   13.6929    4.7805  -16.4279 N   0  0  0  0  0  0  0  0  0  0  0  0
   14.2577    4.0625  -16.9208 H   0  0  0  0  0  0  0  0  0  0  0  0
   13.8028    5.7340  -16.8418 H   0  0  0  0  0  0  0  0  0  0  0  0
    8.0015    4.5009  -13.1432 C   0  0  0  0  0  0  0  0  0  0  0  0
    7.6004    3.2313  -13.2348 N   0  0  0  0  0  0  0  0  0  0  0  0
    6.3470    2.8838  -12.9171 C   0  0  0  0  0  0  0  0  0  0  0  0
    5.4116    3.8328  -12.4798 C   0  0  0  0  0  0  0  0  0  0  0  0
    5.8050    5.1405  -12.3805 C   0  0  0  0  0  0  0  0  0  0  0  0
    7.1128    5.4765  -12.7155 C   0  0  0  0  0  0  0  0  0  0  0  0
    5.8353    1.4852  -12.9640 C   0  0  0  0  0  0  0  0  0  0  0  0
    4.7647    1.3181  -13.7962 F   0  0  0  0  0  0  0  0  0  0  0  0
    5.5154    1.0880  -11.6765 F   0  0  0  0  0  0  0  0  0  0  0  0
    6.8845    0.6286  -13.3491 F   0  0  0  0  0  0  0  0  0  0  0  0
    9.4483    6.2507  -11.5118 O   0  0  0  0  0  0  0  0  0  0  0  0
   10.6875    8.0120   -7.9171 C   0  0  0  0  0  0  0  0  0  0  0  0
   10.1337    6.7499   -7.9861 C   0  0  0  0  0  0  0  0  0  0  0  0
    9.7374    6.2016   -9.1850 C   0  0  0  0  0  0  0  0  0  0  0  0
    9.8637    6.8861  -10.4102 C   0  0  0  0  0  0  0  0  0  0  0  0
   10.4211    8.1426  -10.3036 C   0  0  0  0  0  0  0  0  0  0  0  0
   10.8266    8.6976   -9.0891 C   0  0  0  0  0  0  0  0  0  0  0  0
   11.3724    9.9378   -9.0391 F   0  0  0  0  0  0  0  0  0  0  0  0
   11.1612    8.6395   -6.3470 S   0  0  0  0  0  0  0  0  0  0  0  0
   12.4680    9.3645   -6.3982 O   0  0  0  0  0  0  0  0  0  0  0  0
   10.0773    9.6182   -5.9311 O   0  0  0  0  0  0  0  0  0  0  0  0
   12.6017    8.4681   -1.7912 C   0  0  0  0  0  0  0  0  0  0  0  0
   12.2633    7.3531   -1.9306 N   0  0  0  0  0  0  0  0  0  0  0  0
   11.7782    6.7113   -2.9094 N   0  0  0  0  0  0  0  0  0  0  0  0
   11.5135    5.6617   -2.8481 H   0  0  0  0  0  0  0  0  0  0  0  0
   11.5681    7.3231   -4.0544 C   0  0  0  0  0  0  0  0  0  0  0  0
   11.2307    7.3758   -5.2017 N   0  0  0  0  0  0  0  0  0  0  0  0
   12.1948    9.0869   -3.5427 S   0  0  0  0  0  0  0  0  0  0  0  0
    9.2579    4.8398   -9.1371 C   0  0  0  0  0  0  0  0  0  0  0  0
    8.8919    3.7678   -9.0855 N   0  0  0  0  0  0  0  0  0  0  0  0
 34 35  2  0  0  0
 35 36  1  0  0  0
 36 37  1  0  0  0
 36 38  1  0  0  0
 38 39  2  0  0  0
 39 31  1  0  0  0
 31 32  2  0  0  0
 31 33  2  0  0  0
 31 24  1  0  0  0
 24 25  2  0  0  0
 25 26  1  0  0  0
 26 41  1  0  0  0
 41 42  3  0  0  0
 26 27  2  0  0  0
 27 23  1  0  0  0
 23  1  1  0  0  0
  1  2  2  0  0  0
  2  3  1  0  0  0
  3  4  2  0  0  0
  4  7  1  0  0  0
  7  8  2  0  0  0
  7  9  2  0  0  0
  7 10  1  0  0  0
 10 11  1  0  0  0
 10 12  1  0  0  0
  4  5  1  0  0  0
  5  6  2  0  0  0
  6 13  1  0  0  0
 13 14  2  0  0  0
 14 15  1  0  0  0
 15 19  1  0  0  0
 19 20  1  0  0  0
 19 21  1  0  0  0
 19 22  1  0  0  0
 15 16  2  0  0  0
 16 17  1  0  0  0
 17 18  2  0  0  0
 27 28  1  0  0  0
 28 29  2  0  0  0
 29 30  1  0  0  0
 38 40  1  0  0  0
 40 34  1  0  0  0
 29 24  1  0  0  0
  6  1  1  0  0  0
 18 13  1  0  0  0
M  END
> <minimizedAffinity>
-11.56072

$$$$
2_0


 42 45  0  0  0  0  0  0  0  0999 V2000
   11.7217    6.6639  -14.4050 C   0  0  0  0  0  0  0  0  0  0  0  0
   12.4827    7.7794  -14.6203 C   0  0  0  0  0  0  0  0  0  0  0  0
   13.4830    7.8424  -15.5951 C   0  0  0  0  0  0  0  0  0  0  0  0
   13.7306    6.7457  -16.3783 C   0  0  0  0  0  0  0  0  0  0  0  0
   12.9725    5.6100  -16.1750 C   0  0  0  0  0  0  0  0  0  0  0  0
   11.9704    5.5350  -15.2110 C   0  0  0  0  0  0  0  0  0  0  0  0
   14.9651    6.7975  -17.6371 S   0  0  0  0  0  0  0  0  0  0  0  0
   15.3497    8.1966  -17.9534 O   0  0  0  0  0  0  0  0  0  0  0  0
   14.4638    6.0746  -18.8630 O   0  0  0  0  0  0  0  0  0  0  0  0
   16.3487    5.9765  -17.0150 N   0  0  0  0  0  0  0  0  0  0  0  0
   16.8294    5.5222  -17.8150 H   0  0  0  0  0  0  0  0  0  0  0  0
   16.9760    6.6187  -16.4795 H   0  0  0  0  0  0  0  0  0  0  0  0
   11.1500    4.3015  -15.0703 C   0  0  0  0  0  0  0  0  0  0  0  0
   10.2650    3.9260  -15.9960 N   0  0  0  0  0  0  0  0  0  0  0  0
    9.5653    2.7932  -15.8558 C   0  0  0  0  0  0  0  0  0  0  0  0
    9.7318    1.9621  -14.7385 C   0  0  0  0  0  0  0  0  0  0  0  0
   10.6348    2.3318  -13.7780 C   0  0  0  0  0  0  0  0  0  0  0  0
   11.3504    3.5128  -13.9467 C   0  0  0  0  0  0  0  0  0  0  0  0
    8.5841    2.2930  -16.8594 C   0  0  0  0  0  0  0  0  0  0  0  0
    8.4921    3.0743  -17.9765 F   0  0  0  0  0  0  0  0  0  0  0  0
    7.3475    2.1742  -16.2476 F   0  0  0  0  0  0  0  0  0  0  0  0
    8.9303    0.9762  -17.2184 F   0  0  0  0  0  0  0  0  0  0  0  0
   10.7473    6.5659  -13.4806 O   0  0  0  0  0  0  0  0  0  0  0  0
   10.4440    7.0401   -9.3281 C   0  0  0  0  0  0  0  0  0  0  0  0
    9.5572    6.2837  -10.0669 C   0  0  0  0  0  0  0  0  0  0  0  0
    9.6869    6.1494  -11.4308 C   0  0  0  0  0  0  0  0  0  0  0  0
   10.7198    6.7724  -12.1591 C   0  0  0  0  0  0  0  0  0  0  0  0
   11.5868    7.5186  -11.3894 C   0  0  0  0  0  0  0  0  0  0  0  0
   11.4582    7.6522  -10.0063 C   0  0  0  0  0  0  0  0  0  0  0  0
   12.3404    8.3962   -9.2946 F   0  0  0  0  0  0  0  0  0  0  0  0
   10.2038    7.1644   -7.5932 S   0  0  0  0  0  0  0  0  0  0  0  0
    8.9692    6.4524   -7.1405 O   0  0  0  0  0  0  0  0  0  0  0  0
   11.4099    6.5081   -6.9448 O   0  0  0  0  0  0  0  0  0  0  0  0
   11.5183    9.4307   -3.5937 C   0  0  0  0  0  0  0  0  0  0  0  0
   11.1417   10.3474   -4.2223 N   0  0  0  0  0  0  0  0  0  0  0  0
   10.6537   10.4572   -5.3863 N   0  0  0  0  0  0  0  0  0  0  0  0
   10.3632   11.4112   -5.8119 H   0  0  0  0  0  0  0  0  0  0  0  0
   10.4923    9.3866   -6.1328 C   0  0  0  0  0  0  0  0  0  0  0  0
   10.1482    8.8034   -7.1199 N   0  0  0  0  0  0  0  0  0  0  0  0
   11.1778    8.0724   -4.8804 S   0  0  0  0  0  0  0  0  0  0  0  0
    8.7510    5.2585  -12.0767 C   0  0  0  0  0  0  0  0  0  0  0  0
    8.0238    4.5455  -12.5754 N   0  0  0  0  0  0  0  0  0  0  0  0
 34 35  2  0  0  0
 35 36  1  0  0  0
 36 37  1  0  0  0
 36 38  1  0  0  0
 38 39  2  0  0  0
 39 31  1  0  0  0
 31 32  2  0  0  0
 31 33  2  0  0  0
 31 24  1  0  0  0
 24 25  2  0  0  0
 25 26  1  0  0  0
 26 41  1  0  0  0
 41 42  3  0  0  0
 26 27  2  0  0  0
 27 23  1  0  0  0
 23  1  1  0  0  0
  1  2  2  0  0  0
  2  3  1  0  0  0
  3  4  2  0  0  0
  4  7  1  0  0  0
  7  8  2  0  0  0
  7  9  2  0  0  0
  7 10  1  0  0  0
 10 11  1  0  0  0
 10 12  1  0  0  0
  4  5  1  0  0  0
  5  6  2  0  0  0
  6 13  1  0  0  0
 13 14  2  0  0  0
 14 15  1  0  0  0
 15 19  1  0  0  0
 19 20  1  0  0  0
 19 21  1  0  0  0
 19 22  1  0  0  0
 15 16  2  0  0  0
 16 17  1  0  0  0
 17 18  2  0  0  0
 27 28  1  0  0  0
 28 29  2  0  0  0
 29 30  1  0  0  0
 38 40  1  0  0  0
 40 34  1  0  0  0
 29 24  1  0  0  0
  6  1  1  0  0  0
 18 13  1  0  0  0
M  END
> <minimizedAffinity>
-10.32612

$$$$
2_0


 42 45  0  0  0  0  0  0  0  0999 V2000
   11.4129    6.4425  -13.7661 C   0  0  0  0  0  0  0  0  0  0  0  0
   12.1224    7.5783  -14.0428 C   0  0  0  0  0  0  0  0  0  0  0  0
   12.6806    7.8407  -15.2975 C   0  0  0  0  0  0  0  0  0  0  0  0
   12.5246    6.9291  -16.3084 C   0  0  0  0  0  0  0  0  0  0  0  0
   11.8117    5.7760  -16.0475 C   0  0  0  0  0  0  0  0  0  0  0  0
   11.2467    5.5041  -14.8041 C   0  0  0  0  0  0  0  0  0  0  0  0
   13.1904    7.2391  -17.9122 S   0  0  0  0  0  0  0  0  0  0  0  0
   12.1334    7.1724  -18.9533 O   0  0  0  0  0  0  0  0  0  0  0  0
   14.3017    6.2581  -18.1933 O   0  0  0  0  0  0  0  0  0  0  0  0
   13.8333    8.8395  -17.8862 N   0  0  0  0  0  0  0  0  0  0  0  0
   14.6499    8.8594  -18.5266 H   0  0  0  0  0  0  0  0  0  0  0  0
   13.1113    9.5546  -18.1310 H   0  0  0  0  0  0  0  0  0  0  0  0
   10.4448    4.2682  -14.5941 C   0  0  0  0  0  0  0  0  0  0  0  0
    9.1446    4.3058  -14.2955 N   0  0  0  0  0  0  0  0  0  0  0  0
    8.4430    3.1755  -14.1447 C   0  0  0  0  0  0  0  0  0  0  0  0
    9.0416    1.9158  -14.2920 C   0  0  0  0  0  0  0  0  0  0  0  0
   10.3750    1.8578  -14.5975 C   0  0  0  0  0  0  0  0  0  0  0  0
   11.0823    3.0460  -14.7500 C   0  0  0  0  0  0  0  0  0  0  0  0
    6.9845    3.1370  -13.8424 C   0  0  0  0  0  0  0  0  0  0  0  0
    6.6746    2.4352  -12.7119 F   0  0  0  0  0  0  0  0  0  0  0  0
    6.3198    2.6106  -14.9374 F   0  0  0  0  0  0  0  0  0  0  0  0
    6.5056    4.4570  -13.7377 F   0  0  0  0  0  0  0  0  0  0  0  0
   10.8567    6.1562  -12.5735 O   0  0  0  0  0  0  0  0  0  0  0  0
   10.9044    7.8096   -8.7233 C   0  0  0  0  0  0  0  0  0  0  0  0
    9.8495    7.0653   -9.2107 C   0  0  0  0  0  0  0  0  0  0  0  0
    9.8673    6.5365  -10.4815 C   0  0  0  0  0  0  0  0  0  0  0  0
   10.9497    6.7213  -11.3645 C   0  0  0  0  0  0  0  0  0  0  0  0
   11.9852    7.4685  -10.8445 C   0  0  0  0  0  0  0  0  0  0  0  0
   11.9697    8.0017   -9.5549 C   0  0  0  0  0  0  0  0  0  0  0  0
   13.0161    8.7278   -9.0900 F   0  0  0  0  0  0  0  0  0  0  0  0
   10.7995    8.4529   -7.0929 S   0  0  0  0  0  0  0  0  0  0  0  0
   11.7224    9.6101   -6.8807 O   0  0  0  0  0  0  0  0  0  0  0  0
    9.3696    8.9306   -6.9111 O   0  0  0  0  0  0  0  0  0  0  0  0
   12.1300    8.5606   -2.5018 C   0  0  0  0  0  0  0  0  0  0  0  0
   12.0503    7.3997   -2.6544 N   0  0  0  0  0  0  0  0  0  0  0  0
   11.7434    6.6760   -3.6480 N   0  0  0  0  0  0  0  0  0  0  0  0
   11.7161    5.5933   -3.5977 H   0  0  0  0  0  0  0  0  0  0  0  0
   11.4313    7.2372   -4.7957 C   0  0  0  0  0  0  0  0  0  0  0  0
   11.1188    7.2250   -5.9511 N   0  0  0  0  0  0  0  0  0  0  0  0
   11.6394    9.0909   -4.2609 S   0  0  0  0  0  0  0  0  0  0  0  0
    8.7453    5.7008  -10.8413 C   0  0  0  0  0  0  0  0  0  0  0  0
    7.8577    5.0472  -11.1076 N   0  0  0  0  0  0  0  0  0  0  0  0
 34 35  2  0  0  0
 35 36  1  0  0  0
 36 37  1  0  0  0
 36 38  1  0  0  0
 38 39  2  0  0  0
 39 31  1  0  0  0
 31 32  2  0  0  0
 31 33  2  0  0  0
 31 24  1  0  0  0
 24 25  2  0  0  0
 25 26  1  0  0  0
 26 41  1  0  0  0
 41 42  3  0  0  0
 26 27  2  0  0  0
 27 23  1  0  0  0
 23  1  1  0  0  0
  1  2  2  0  0  0
  2  3  1  0  0  0
  3  4  2  0  0  0
  4  7  1  0  0  0
  7  8  2  0  0  0
  7  9  2  0  0  0
  7 10  1  0  0  0
 10 11  1  0  0  0
 10 12  1  0  0  0
  4  5  1  0  0  0
  5  6  2  0  0  0
  6 13  1  0  0  0
 13 14  2  0  0  0
 14 15  1  0  0  0
 15 19  1  0  0  0
 19 20  1  0  0  0
 19 21  1  0  0  0
 19 22  1  0  0  0
 15 16  2  0  0  0
 16 17  1  0  0  0
 17 18  2  0  0  0
 27 28  1  0  0  0
 28 29  2  0  0  0
 29 30  1  0  0  0
 38 40  1  0  0  0
 40 34  1  0  0  0
 29 24  1  0  0  0
  6  1  1  0  0  0
 18 13  1  0  0  0
M  END
> <minimizedAffinity>
-10.15842

$$$$
2_0


 42 45  0  0  0  0  0  0  0  0999 V2000
   10.1037    4.4857  -13.7271 C   0  0  0  0  0  0  0  0  0  0  0  0
   11.0578    3.7099  -14.3255 C   0  0  0  0  0  0  0  0  0  0  0  0
   10.8002    2.4235  -14.8085 C   0  0  0  0  0  0  0  0  0  0  0  0
    9.5420    1.8959  -14.6829 C   0  0  0  0  0  0  0  0  0  0  0  0
    8.5657    2.6643  -14.0809 C   0  0  0  0  0  0  0  0  0  0  0  0
    8.8073    3.9484  -13.5994 C   0  0  0  0  0  0  0  0  0  0  0  0
    9.1728    0.2875  -15.3060 S   0  0  0  0  0  0  0  0  0  0  0  0
    8.5991   -0.5794  -14.2454 O   0  0  0  0  0  0  0  0  0  0  0  0
   10.4200   -0.3206  -15.8984 O   0  0  0  0  0  0  0  0  0  0  0  0
    7.9910    0.4905  -16.5459 N   0  0  0  0  0  0  0  0  0  0  0  0
    8.1490   -0.2520  -17.2539 H   0  0  0  0  0  0  0  0  0  0  0  0
    7.0182    0.4827  -16.1636 H   0  0  0  0  0  0  0  0  0  0  0  0
    7.7040    4.7510  -13.0052 C   0  0  0  0  0  0  0  0  0  0  0  0
    7.6635    6.0819  -13.0958 N   0  0  0  0  0  0  0  0  0  0  0  0
    6.6402    6.7734  -12.5788 C   0  0  0  0  0  0  0  0  0  0  0  0
    5.5781    6.1322  -11.9249 C   0  0  0  0  0  0  0  0  0  0  0  0
    5.6030    4.7671  -11.8216 C   0  0  0  0  0  0  0  0  0  0  0  0
    6.6766    4.0710  -12.3676 C   0  0  0  0  0  0  0  0  0  0  0  0
    6.5096    8.2550  -12.6674 C   0  0  0  0  0  0  0  0  0  0  0  0
    5.5210    8.7690  -11.8767 F   0  0  0  0  0  0  0  0  0  0  0  0
    6.3010    8.6020  -13.9917 F   0  0  0  0  0  0  0  0  0  0  0  0
    7.7461    8.8423  -12.3373 F   0  0  0  0  0  0  0  0  0  0  0  0
   10.3113    5.7293  -13.2539 O   0  0  0  0  0  0  0  0  0  0  0  0
   11.0295    7.4233   -9.4891 C   0  0  0  0  0  0  0  0  0  0  0  0
   11.7974    7.7043  -10.6007 C   0  0  0  0  0  0  0  0  0  0  0  0
   11.5329    7.1294  -11.8232 C   0  0  0  0  0  0  0  0  0  0  0  0
   10.4746    6.2203  -12.0202 C   0  0  0  0  0  0  0  0  0  0  0  0
    9.7286    5.9638  -10.8895 C   0  0  0  0  0  0  0  0  0  0  0  0
    9.9937    6.5491   -9.6507 C   0  0  0  0  0  0  0  0  0  0  0  0
    9.2271    6.2651   -8.5690 F   0  0  0  0  0  0  0  0  0  0  0  0
   11.4380    8.1952   -7.9658 S   0  0  0  0  0  0  0  0  0  0  0  0
   12.8092    8.7914   -7.9833 O   0  0  0  0  0  0  0  0  0  0  0  0
   10.4254    9.3085   -7.7635 O   0  0  0  0  0  0  0  0  0  0  0  0
   11.9022    8.6318   -3.2272 C   0  0  0  0  0  0  0  0  0  0  0  0
   11.6239    7.4936   -3.2917 N   0  0  0  0  0  0  0  0  0  0  0  0
   11.3669    6.7185   -4.2603 N   0  0  0  0  0  0  0  0  0  0  0  0
   11.1175    5.6723   -4.1231 H   0  0  0  0  0  0  0  0  0  0  0  0
   11.3867    7.1799   -5.4917 C   0  0  0  0  0  0  0  0  0  0  0  0
   11.2943    7.0806   -6.6810 N   0  0  0  0  0  0  0  0  0  0  0  0
   11.8557    9.0192   -5.0884 S   0  0  0  0  0  0  0  0  0  0  0  0
   12.3505    7.5736  -12.9281 C   0  0  0  0  0  0  0  0  0  0  0  0
   12.9845    7.9103  -13.8059 N   0  0  0  0  0  0  0  0  0  0  0  0
 34 35  2  0  0  0
 35 36  1  0  0  0
 36 37  1  0  0  0
 36 38  1  0  0  0
 38 39  2  0  0  0
 39 31  1  0  0  0
 31 32  2  0  0  0
 31 33  2  0  0  0
 31 24  1  0  0  0
 24 25  2  0  0  0
 25 26  1  0  0  0
 26 41  1  0  0  0
 41 42  3  0  0  0
 26 27  2  0  0  0
 27 23  1  0  0  0
 23  1  1  0  0  0
  1  2  2  0  0  0
  2  3  1  0  0  0
  3  4  2  0  0  0
  4  7  1  0  0  0
  7  8  2  0  0  0
  7  9  2  0  0  0
  7 10  1  0  0  0
 10 11  1  0  0  0
 10 12  1  0  0  0
  4  5  1  0  0  0
  5  6  2  0  0  0
  6 13  1  0  0  0
 13 14  2  0  0  0
 14 15  1  0  0  0
 15 19  1  0  0  0
 19 20  1  0  0  0
 19 21  1  0  0  0
 19 22  1  0  0  0
 15 16  2  0  0  0
 16 17  1  0  0  0
 17 18  2  0  0  0
 27 28  1  0  0  0
 28 29  2  0  0  0
 29 30  1  0  0  0
 38 40  1  0  0  0
 40 34  1  0  0  0
 29 24  1  0  0  0
  6  1  1  0  0  0
 18 13  1  0  0  0
M  END
> <minimizedAffinity>
-9.86885

$$$$
