2_1


 28 30  0  0  0  0  0  0  0  0999 V2000
   10.3378    7.0610  -11.0352 C   0  0  0  0  0  0  0  0  0  0  0  0
   10.4034    7.2259   -9.6770 N   0  0  0  0  0  0  0  0  0  0  0  0
   11.4726    7.7394   -9.0533 C   0  0  0  0  0  0  0  0  0  0  0  0
   12.5137    8.1004   -9.8197 N   0  0  0  0  0  0  0  0  0  0  0  0
   12.5028    7.9589  -11.1643 C   0  0  0  0  0  0  0  0  0  0  0  0
   13.6832    8.3728  -11.9694 C   0  0  0  0  0  0  0  0  0  0  0  0
   11.3996    7.4254  -11.8354 C   0  0  0  0  0  0  0  0  0  0  0  0
    6.7235    5.2045  -12.3634 C   0  0  0  0  0  0  0  0  0  0  0  0
    7.7319    4.4919  -11.7489 C   0  0  0  0  0  0  0  0  0  0  0  0
    8.8954    5.1138  -11.3389 C   0  0  0  0  0  0  0  0  0  0  0  0
    9.1039    6.4854  -11.5268 C   0  0  0  0  0  0  0  0  0  0  0  0
    8.0881    7.1707  -12.1378 C   0  0  0  0  0  0  0  0  0  0  0  0
    6.9098    6.5436  -12.5541 C   0  0  0  0  0  0  0  0  0  0  0  0
    5.4391    3.0879  -12.4383 C   0  0  0  0  0  0  0  0  0  0  0  0
    5.4638    4.5599  -12.8144 C   0  0  0  0  0  0  0  0  0  0  0  0
   11.5007    7.8996   -7.6063 C   0  0  0  0  0  0  0  0  0  0  0  0
   11.0740    6.8806   -6.7890 C   0  0  0  0  0  0  0  0  0  0  0  0
   11.1028    7.0369   -5.4251 C   0  0  0  0  0  0  0  0  0  0  0  0
   11.5585    8.2145   -4.8487 C   0  0  0  0  0  0  0  0  0  0  0  0
   11.9879    9.2382   -5.6993 C   0  0  0  0  0  0  0  0  0  0  0  0
   11.9566    9.0760   -7.0600 C   0  0  0  0  0  0  0  0  0  0  0  0
   11.4783    7.2502  -13.2675 C   0  0  0  0  0  0  0  0  0  0  0  0
   12.1538    6.0836  -13.7639 N   0  0  0  0  0  0  0  0  0  0  0  0
   11.4496    4.8624  -13.7532 C   0  0  0  0  0  0  0  0  0  0  0  0
   12.7654    6.4605  -15.0157 C   0  0  0  0  0  0  0  0  0  0  0  0
   12.7231    5.4197  -16.0764 C   0  0  0  0  0  0  0  0  0  0  0  0
   14.0668    5.0290  -16.3027 O   0  0  0  0  0  0  0  0  0  0  0  0
   14.0517    4.4176  -17.0707 H   0  0  0  0  0  0  0  0  0  0  0  0
 14 15  1  0  0  0
 15  8  1  0  0  0
  8  9  2  0  0  0
  9 10  1  0  0  0
 10 11  2  0  0  0
 11  1  1  0  0  0
  1  2  2  0  0  0
  2  3  1  0  0  0
  3 16  1  0  0  0
 16 17  2  0  0  0
 17 18  1  0  0  0
 18 19  2  0  0  0
 19 20  1  0  0  0
 20 21  2  0  0  0
  3  4  2  0  0  0
  4  5  1  0  0  0
  5  6  1  0  0  0
  5  7  2  0  0  0
  7 22  1  0  0  0
 22 23  1  0  0  0
 23 24  1  0  0  0
 23 25  1  0  0  0
 25 26  1  0  0  0
 26 27  1  0  0  0
 11 12  1  0  0  0
 12 13  2  0  0  0
 13  8  1  0  0  0
  7  1  1  0  0  0
 21 16  1  0  0  0
 27 28  1  0  0  0
M  END
> <minimizedAffinity>
-9.36638

$$$$
2_1


 28 30  0  0  0  0  0  0  0  0999 V2000
    9.4156    5.6332  -12.4114 C   0  0  0  0  0  0  0  0  0  0  0  0
    9.5330    6.1411  -11.1447 N   0  0  0  0  0  0  0  0  0  0  0  0
   10.5274    6.9594  -10.7740 C   0  0  0  0  0  0  0  0  0  0  0  0
   11.4371    7.2796  -11.7076 N   0  0  0  0  0  0  0  0  0  0  0  0
   11.3699    6.8062  -12.9724 C   0  0  0  0  0  0  0  0  0  0  0  0
   12.4043    7.1897  -13.9703 C   0  0  0  0  0  0  0  0  0  0  0  0
   10.3428    5.9516  -13.3805 C   0  0  0  0  0  0  0  0  0  0  0  0
    5.9374    3.2191  -13.0013 C   0  0  0  0  0  0  0  0  0  0  0  0
    5.8929    4.4160  -12.3172 C   0  0  0  0  0  0  0  0  0  0  0  0
    7.0338    5.1722  -12.1304 C   0  0  0  0  0  0  0  0  0  0  0  0
    8.2788    4.7623  -12.6227 C   0  0  0  0  0  0  0  0  0  0  0  0
    8.2966    3.5718  -13.2989 C   0  0  0  0  0  0  0  0  0  0  0  0
    7.1434    2.8044  -13.4888 C   0  0  0  0  0  0  0  0  0  0  0  0
    5.1010    0.9596  -13.5763 C   0  0  0  0  0  0  0  0  0  0  0  0
    4.7259    2.3870  -13.2148 C   0  0  0  0  0  0  0  0  0  0  0  0
   10.6144    7.4791   -9.4165 C   0  0  0  0  0  0  0  0  0  0  0  0
   10.2259    6.7017   -8.3520 C   0  0  0  0  0  0  0  0  0  0  0  0
   10.3101    7.1965   -7.0739 C   0  0  0  0  0  0  0  0  0  0  0  0
   10.7841    8.4785   -6.8322 C   0  0  0  0  0  0  0  0  0  0  0  0
   11.1739    9.2521   -7.9302 C   0  0  0  0  0  0  0  0  0  0  0  0
   11.0874    8.7522   -9.2036 C   0  0  0  0  0  0  0  0  0  0  0  0
   10.3643    5.4386  -14.7312 C   0  0  0  0  0  0  0  0  0  0  0  0
   11.3775    4.4770  -15.0668 N   0  0  0  0  0  0  0  0  0  0  0  0
   11.2830    3.1945  -14.4893 C   0  0  0  0  0  0  0  0  0  0  0  0
   11.5351    4.5249  -16.5007 C   0  0  0  0  0  0  0  0  0  0  0  0
   12.8886    4.1637  -16.9984 C   0  0  0  0  0  0  0  0  0  0  0  0
   13.8090    4.9165  -16.2267 O   0  0  0  0  0  0  0  0  0  0  0  0
   14.6947    4.7574  -16.6193 H   0  0  0  0  0  0  0  0  0  0  0  0
 14 15  1  0  0  0
 15  8  1  0  0  0
  8  9  2  0  0  0
  9 10  1  0  0  0
 10 11  2  0  0  0
 11  1  1  0  0  0
  1  2  2  0  0  0
  2  3  1  0  0  0
  3 16  1  0  0  0
 16 17  2  0  0  0
 17 18  1  0  0  0
 18 19  2  0  0  0
 19 20  1  0  0  0
 20 21  2  0  0  0
  3  4  2  0  0  0
  4  5  1  0  0  0
  5  6  1  0  0  0
  5  7  2  0  0  0
  7 22  1  0  0  0
 22 23  1  0  0  0
 23 24  1  0  0  0
 23 25  1  0  0  0
 25 26  1  0  0  0
 26 27  1  0  0  0
 11 12  1  0  0  0
 12 13  2  0  0  0
 13  8  1  0  0  0
  7  1  1  0  0  0
 21 16  1  0  0  0
 27 28  1  0  0  0
M  END
> <minimizedAffinity>
-8.16939

$$$$
2_1


 28 30  0  0  0  0  0  0  0  0999 V2000
   10.2170    4.1136  -13.7662 C   0  0  0  0  0  0  0  0  0  0  0  0
    9.0714    3.3874  -13.5751 N   0  0  0  0  0  0  0  0  0  0  0  0
    8.7521    2.3166  -14.3149 C   0  0  0  0  0  0  0  0  0  0  0  0
    9.6131    1.9615  -15.2815 N   0  0  0  0  0  0  0  0  0  0  0  0
   10.7575    2.6430  -15.5141 C   0  0  0  0  0  0  0  0  0  0  0  0
   11.6784    2.2100  -16.5992 C   0  0  0  0  0  0  0  0  0  0  0  0
   11.1100    3.7623  -14.7560 C   0  0  0  0  0  0  0  0  0  0  0  0
   10.6126    7.3417  -10.9919 C   0  0  0  0  0  0  0  0  0  0  0  0
    9.6103    6.4003  -10.8847 C   0  0  0  0  0  0  0  0  0  0  0  0
    9.4975    5.3728  -11.8012 C   0  0  0  0  0  0  0  0  0  0  0  0
   10.3881    5.2401  -12.8734 C   0  0  0  0  0  0  0  0  0  0  0  0
   11.3745    6.1861  -12.9574 C   0  0  0  0  0  0  0  0  0  0  0  0
   11.4905    7.2272  -12.0313 C   0  0  0  0  0  0  0  0  0  0  0  0
   11.8677    8.1738   -9.0252 C   0  0  0  0  0  0  0  0  0  0  0  0
   10.7552    8.4563  -10.0208 C   0  0  0  0  0  0  0  0  0  0  0  0
    7.5243    1.5707  -14.0774 C   0  0  0  0  0  0  0  0  0  0  0  0
    6.3945    2.2194  -13.6404 C   0  0  0  0  0  0  0  0  0  0  0  0
    5.2392    1.5113  -13.4181 C   0  0  0  0  0  0  0  0  0  0  0  0
    5.1881    0.1401  -13.6276 C   0  0  0  0  0  0  0  0  0  0  0  0
    6.3496   -0.4995  -14.0724 C   0  0  0  0  0  0  0  0  0  0  0  0
    7.4997    0.2131  -14.2924 C   0  0  0  0  0  0  0  0  0  0  0  0
   12.3193    4.4763  -15.0959 C   0  0  0  0  0  0  0  0  0  0  0  0
   12.3323    5.2277  -16.3203 N   0  0  0  0  0  0  0  0  0  0  0  0
   11.1819    5.9753  -16.6443 C   0  0  0  0  0  0  0  0  0  0  0  0
   13.5894    5.9358  -16.3583 C   0  0  0  0  0  0  0  0  0  0  0  0
   14.5614    5.4406  -17.3683 C   0  0  0  0  0  0  0  0  0  0  0  0
   15.7067    5.0227  -16.6451 O   0  0  0  0  0  0  0  0  0  0  0  0
   16.3870    4.7906  -17.3139 H   0  0  0  0  0  0  0  0  0  0  0  0
 14 15  1  0  0  0
 15  8  1  0  0  0
  8  9  2  0  0  0
  9 10  1  0  0  0
 10 11  2  0  0  0
 11  1  1  0  0  0
  1  2  2  0  0  0
  2  3  1  0  0  0
  3 16  1  0  0  0
 16 17  2  0  0  0
 17 18  1  0  0  0
 18 19  2  0  0  0
 19 20  1  0  0  0
 20 21  2  0  0  0
  3  4  2  0  0  0
  4  5  1  0  0  0
  5  6  1  0  0  0
  5  7  2  0  0  0
  7 22  1  0  0  0
 22 23  1  0  0  0
 23 24  1  0  0  0
 23 25  1  0  0  0
 25 26  1  0  0  0
 26 27  1  0  0  0
 11 12  1  0  0  0
 12 13  2  0  0  0
 13  8  1  0  0  0
  7  1  1  0  0  0
 21 16  1  0  0  0
 27 28  1  0  0  0
M  END
> <minimizedAffinity>
-7.90603

$$$$
