18_0


 28 31  0  0  0  0  0  0  0  0999 V2000
    9.0486    4.6233   -8.5082 H   0  0  0  0  0  0  0  0  0  0  0  0
    8.7500    5.5669   -8.2737 O   0  0  0  0  0  0  0  0  0  0  0  0
    9.6721    6.6137   -8.4711 C   0  0  0  0  0  0  0  0  0  0  0  0
   10.1298    6.7443   -9.6837 N   0  0  0  0  0  0  0  0  0  0  0  0
   11.1023    7.8121   -9.9840 C   0  0  0  0  0  0  0  0  0  0  0  0
   11.5703    7.3375  -11.3782 C   0  0  0  0  0  0  0  0  0  0  0  0
   10.4193    6.7171  -11.9379 N   0  0  0  0  0  0  0  0  0  0  0  0
   10.6230    5.8263  -13.0287 C   0  0  0  0  0  0  0  0  0  0  0  0
    9.3462    5.1095  -13.3302 C   0  0  0  0  0  0  0  0  0  0  0  0
    8.3183    5.1268  -12.5009 C   0  0  0  0  0  0  0  0  0  0  0  0
    8.3563    5.8684  -11.1856 C   0  0  0  0  0  0  0  0  0  0  0  0
    9.8302    5.9767  -10.8573 C   0  0  0  0  0  0  0  0  0  0  0  0
   10.0825    7.4928   -7.3774 C   0  0  0  0  0  0  0  0  0  0  0  0
   10.9106    6.9265   -6.4159 C   0  0  0  0  0  0  0  0  0  0  0  0
   11.3687    7.6478   -5.3335 C   0  0  0  0  0  0  0  0  0  0  0  0
   10.9683    8.9773   -5.2362 C   0  0  0  0  0  0  0  0  0  0  0  0
   10.1396    9.5577   -6.1911 C   0  0  0  0  0  0  0  0  0  0  0  0
    9.6853    8.8101   -7.2817 C   0  0  0  0  0  0  0  0  0  0  0  0
   11.4439    9.6793   -4.1374 O   0  0  0  0  0  0  0  0  0  0  0  0
   12.0368    8.9354   -3.0824 C   0  0  0  0  0  0  0  0  0  0  0  0
    9.2852    4.3832  -14.5935 C   0  0  0  0  0  0  0  0  0  0  0  0
    9.8080    4.8643  -15.7745 C   0  0  0  0  0  0  0  0  0  0  0  0
    9.7400    4.1595  -16.9696 C   0  0  0  0  0  0  0  0  0  0  0  0
    9.1399    2.9376  -17.0199 C   0  0  0  0  0  0  0  0  0  0  0  0
    8.6073    2.4255  -15.8627 C   0  0  0  0  0  0  0  0  0  0  0  0
    8.6767    3.1301  -14.6743 C   0  0  0  0  0  0  0  0  0  0  0  0
    7.9965    1.1870  -15.9026 O   0  0  0  0  0  0  0  0  0  0  0  0
    8.3243    0.2354  -14.9072 C   0  0  0  0  0  0  0  0  0  0  0  0
  1  2  1  0  0  0
  2  3  1  0  0  0
  3 13  1  0  0  0
 13 14  2  0  0  0
 14 15  1  0  0  0
 15 16  2  0  0  0
 16 19  1  0  0  0
 19 20  1  0  0  0
 16 17  1  0  0  0
 17 18  2  0  0  0
  3  4  2  0  0  0
  4  5  1  0  0  0
  5  6  1  0  0  0
  6  7  1  0  0  0
  7  8  1  0  0  0
  8  9  1  0  0  0
  9 21  1  0  0  0
 21 22  2  0  0  0
 22 23  1  0  0  0
 23 24  2  0  0  0
 24 25  1  0  0  0
 25 27  1  0  0  0
 27 28  1  0  0  0
 25 26  2  0  0  0
  9 10  2  0  0  0
 10 11  1  0  0  0
 11 12  1  0  0  0
 18 13  1  0  0  0
 12  4  1  0  0  0
 12  7  1  0  0  0
 26 21  1  0  0  0
M  CHG 1   4   1
M  END
> <minimizedAffinity>
-9.67844

$$$$
18_0


 28 31  0  0  0  0  0  0  0  0999 V2000
    9.3505    1.1067  -13.3885 H   0  0  0  0  0  0  0  0  0  0  0  0
    8.8817    1.2529  -14.2792 O   0  0  0  0  0  0  0  0  0  0  0  0
    7.5436    1.6930  -14.2505 C   0  0  0  0  0  0  0  0  0  0  0  0
    7.3288    2.8123  -13.6195 N   0  0  0  0  0  0  0  0  0  0  0  0
    5.9575    3.3495  -13.5357 C   0  0  0  0  0  0  0  0  0  0  0  0
    6.1778    4.4253  -12.4484 C   0  0  0  0  0  0  0  0  0  0  0  0
    7.5138    4.8647  -12.6607 N   0  0  0  0  0  0  0  0  0  0  0  0
    8.1559    5.5443  -11.5880 C   0  0  0  0  0  0  0  0  0  0  0  0
    9.6046    5.7248  -11.9102 C   0  0  0  0  0  0  0  0  0  0  0  0
   10.1886    5.0807  -12.9045 C   0  0  0  0  0  0  0  0  0  0  0  0
    9.4385    4.1119  -13.7879 C   0  0  0  0  0  0  0  0  0  0  0  0
    8.2595    3.6711  -12.9468 C   0  0  0  0  0  0  0  0  0  0  0  0
    6.4712    0.9345  -14.8922 C   0  0  0  0  0  0  0  0  0  0  0  0
    6.4170    1.0061  -16.2789 C   0  0  0  0  0  0  0  0  0  0  0  0
    5.4543    0.3374  -17.0053 C   0  0  0  0  0  0  0  0  0  0  0  0
    4.5285   -0.4202  -16.2938 C   0  0  0  0  0  0  0  0  0  0  0  0
    4.5704   -0.5013  -14.9056 C   0  0  0  0  0  0  0  0  0  0  0  0
    5.5542    0.1840  -14.1863 C   0  0  0  0  0  0  0  0  0  0  0  0
    3.5713   -1.0824  -17.0498 O   0  0  0  0  0  0  0  0  0  0  0  0
    3.9665   -1.6000  -18.3123 C   0  0  0  0  0  0  0  0  0  0  0  0
   10.3519    6.6533  -11.0695 C   0  0  0  0  0  0  0  0  0  0  0  0
   11.4979    7.2992  -11.4805 C   0  0  0  0  0  0  0  0  0  0  0  0
   12.1983    8.1800  -10.6660 C   0  0  0  0  0  0  0  0  0  0  0  0
   11.7683    8.4441   -9.4007 C   0  0  0  0  0  0  0  0  0  0  0  0
   10.6296    7.8189   -8.9560 C   0  0  0  0  0  0  0  0  0  0  0  0
    9.9346    6.9424   -9.7698 C   0  0  0  0  0  0  0  0  0  0  0  0
   10.1847    8.0798   -7.6744 O   0  0  0  0  0  0  0  0  0  0  0  0
    9.5163    7.0533   -6.9651 C   0  0  0  0  0  0  0  0  0  0  0  0
  1  2  1  0  0  0
  2  3  1  0  0  0
  3 13  1  0  0  0
 13 14  2  0  0  0
 14 15  1  0  0  0
 15 16  2  0  0  0
 16 19  1  0  0  0
 19 20  1  0  0  0
 16 17  1  0  0  0
 17 18  2  0  0  0
  3  4  2  0  0  0
  4  5  1  0  0  0
  5  6  1  0  0  0
  6  7  1  0  0  0
  7  8  1  0  0  0
  8  9  1  0  0  0
  9 21  1  0  0  0
 21 22  2  0  0  0
 22 23  1  0  0  0
 23 24  2  0  0  0
 24 25  1  0  0  0
 25 27  1  0  0  0
 27 28  1  0  0  0
 25 26  2  0  0  0
  9 10  2  0  0  0
 10 11  1  0  0  0
 11 12  1  0  0  0
 18 13  1  0  0  0
 12  4  1  0  0  0
 12  7  1  0  0  0
 26 21  1  0  0  0
M  CHG 1   4   1
M  END
> <minimizedAffinity>
-9.41910

$$$$
18_0


 28 31  0  0  0  0  0  0  0  0999 V2000
   12.6927    4.8058  -13.3390 H   0  0  0  0  0  0  0  0  0  0  0  0
   12.1845    5.2093  -14.1223 O   0  0  0  0  0  0  0  0  0  0  0  0
   10.8044    4.9414  -14.2153 C   0  0  0  0  0  0  0  0  0  0  0  0
   10.0878    5.2969  -13.1871 N   0  0  0  0  0  0  0  0  0  0  0  0
    8.6329    5.0535  -13.1944 C   0  0  0  0  0  0  0  0  0  0  0  0
    8.3308    5.3071  -11.7002 C   0  0  0  0  0  0  0  0  0  0  0  0
    9.2713    6.3043  -11.3205 N   0  0  0  0  0  0  0  0  0  0  0  0
    9.5306    6.4617   -9.9302 C   0  0  0  0  0  0  0  0  0  0  0  0
   10.6928    7.3832   -9.7426 C   0  0  0  0  0  0  0  0  0  0  0  0
   11.4859    7.7258  -10.7417 C   0  0  0  0  0  0  0  0  0  0  0  0
   11.2808    7.2106  -12.1466 C   0  0  0  0  0  0  0  0  0  0  0  0
   10.4976    5.9277  -11.9663 C   0  0  0  0  0  0  0  0  0  0  0  0
   10.2230    4.3049  -15.3960 C   0  0  0  0  0  0  0  0  0  0  0  0
   10.0874    5.1103  -16.5202 C   0  0  0  0  0  0  0  0  0  0  0  0
    9.5537    4.6319  -17.6984 C   0  0  0  0  0  0  0  0  0  0  0  0
    9.1510    3.2998  -17.7229 C   0  0  0  0  0  0  0  0  0  0  0  0
    9.2808    2.4816  -16.6052 C   0  0  0  0  0  0  0  0  0  0  0  0
    9.8243    2.9848  -15.4194 C   0  0  0  0  0  0  0  0  0  0  0  0
    8.6178    2.8451  -18.9208 O   0  0  0  0  0  0  0  0  0  0  0  0
    8.2075    1.4868  -18.9898 C   0  0  0  0  0  0  0  0  0  0  0  0
   10.9140    7.8924   -8.3938 C   0  0  0  0  0  0  0  0  0  0  0  0
   11.1601    9.2187   -8.1114 C   0  0  0  0  0  0  0  0  0  0  0  0
   11.3700    9.6865   -6.8204 C   0  0  0  0  0  0  0  0  0  0  0  0
   11.3397    8.8315   -5.7605 C   0  0  0  0  0  0  0  0  0  0  0  0
   11.0972    7.5020   -6.0029 C   0  0  0  0  0  0  0  0  0  0  0  0
   10.8887    7.0395   -7.2898 C   0  0  0  0  0  0  0  0  0  0  0  0
   11.0642    6.6262   -4.9349 O   0  0  0  0  0  0  0  0  0  0  0  0
   11.6749    7.0149   -3.7185 C   0  0  0  0  0  0  0  0  0  0  0  0
  1  2  1  0  0  0
  2  3  1  0  0  0
  3 13  1  0  0  0
 13 14  2  0  0  0
 14 15  1  0  0  0
 15 16  2  0  0  0
 16 19  1  0  0  0
 19 20  1  0  0  0
 16 17  1  0  0  0
 17 18  2  0  0  0
  3  4  2  0  0  0
  4  5  1  0  0  0
  5  6  1  0  0  0
  6  7  1  0  0  0
  7  8  1  0  0  0
  8  9  1  0  0  0
  9 21  1  0  0  0
 21 22  2  0  0  0
 22 23  1  0  0  0
 23 24  2  0  0  0
 24 25  1  0  0  0
 25 27  1  0  0  0
 27 28  1  0  0  0
 25 26  2  0  0  0
  9 10  2  0  0  0
 10 11  1  0  0  0
 11 12  1  0  0  0
 18 13  1  0  0  0
 12  4  1  0  0  0
 12  7  1  0  0  0
 26 21  1  0  0  0
M  CHG 1   4   1
M  END
> <minimizedAffinity>
-9.00186

$$$$
18_0


 28 31  0  0  0  0  0  0  0  0999 V2000
   11.4514    7.6570  -13.5389 H   0  0  0  0  0  0  0  0  0  0  0  0
   11.8712    7.3590  -12.6616 O   0  0  0  0  0  0  0  0  0  0  0  0
   11.0087    7.0949  -11.5793 C   0  0  0  0  0  0  0  0  0  0  0  0
   10.0966    6.1890  -11.7900 N   0  0  0  0  0  0  0  0  0  0  0  0
    9.1468    5.8479  -10.7140 C   0  0  0  0  0  0  0  0  0  0  0  0
    8.1170    5.0419  -11.5375 C   0  0  0  0  0  0  0  0  0  0  0  0
    8.8961    4.4143  -12.5485 N   0  0  0  0  0  0  0  0  0  0  0  0
    8.2097    3.9387  -13.7007 C   0  0  0  0  0  0  0  0  0  0  0  0
    9.2050    3.5219  -14.7354 C   0  0  0  0  0  0  0  0  0  0  0  0
   10.4838    3.8412  -14.6488 C   0  0  0  0  0  0  0  0  0  0  0  0
   11.0357    4.6530  -13.5008 C   0  0  0  0  0  0  0  0  0  0  0  0
    9.8395    5.4127  -12.9679 C   0  0  0  0  0  0  0  0  0  0  0  0
   11.1381    7.7981  -10.3042 C   0  0  0  0  0  0  0  0  0  0  0  0
   12.3648    7.6793   -9.6624 C   0  0  0  0  0  0  0  0  0  0  0  0
   12.6165    8.2934   -8.4535 C   0  0  0  0  0  0  0  0  0  0  0  0
   11.5879    9.0446   -7.8923 C   0  0  0  0  0  0  0  0  0  0  0  0
   10.3546    9.1725   -8.5233 C   0  0  0  0  0  0  0  0  0  0  0  0
   10.1183    8.5423   -9.7487 C   0  0  0  0  0  0  0  0  0  0  0  0
   11.8686    9.6514   -6.6760 O   0  0  0  0  0  0  0  0  0  0  0  0
   10.7896    9.8617   -5.7763 C   0  0  0  0  0  0  0  0  0  0  0  0
    8.6962    2.7392  -15.8560 C   0  0  0  0  0  0  0  0  0  0  0  0
    9.1409    2.8867  -17.1521 C   0  0  0  0  0  0  0  0  0  0  0  0
    8.6443    2.1334  -18.2083 C   0  0  0  0  0  0  0  0  0  0  0  0
    7.6761    1.1987  -17.9971 C   0  0  0  0  0  0  0  0  0  0  0  0
    7.2080    1.0232  -16.7183 C   0  0  0  0  0  0  0  0  0  0  0  0
    7.7049    1.7752  -15.6690 C   0  0  0  0  0  0  0  0  0  0  0  0
    6.2262    0.0778  -16.4931 O   0  0  0  0  0  0  0  0  0  0  0  0
    5.4004    0.2146  -15.3516 C   0  0  0  0  0  0  0  0  0  0  0  0
  1  2  1  0  0  0
  2  3  1  0  0  0
  3 13  1  0  0  0
 13 14  2  0  0  0
 14 15  1  0  0  0
 15 16  2  0  0  0
 16 19  1  0  0  0
 19 20  1  0  0  0
 16 17  1  0  0  0
 17 18  2  0  0  0
  3  4  2  0  0  0
  4  5  1  0  0  0
  5  6  1  0  0  0
  6  7  1  0  0  0
  7  8  1  0  0  0
  8  9  1  0  0  0
  9 21  1  0  0  0
 21 22  2  0  0  0
 22 23  1  0  0  0
 23 24  2  0  0  0
 24 25  1  0  0  0
 25 27  1  0  0  0
 27 28  1  0  0  0
 25 26  2  0  0  0
  9 10  2  0  0  0
 10 11  1  0  0  0
 11 12  1  0  0  0
 18 13  1  0  0  0
 12  4  1  0  0  0
 12  7  1  0  0  0
 26 21  1  0  0  0
M  CHG 1   4   1
M  END
> <minimizedAffinity>
-8.15995

$$$$
18_0


 28 31  0  0  0  0  0  0  0  0999 V2000
   12.0128    8.6382  -12.0123 H   0  0  0  0  0  0  0  0  0  0  0  0
   12.3045    8.0937  -11.2042 O   0  0  0  0  0  0  0  0  0  0  0  0
   11.2973    7.5390  -10.3899 C   0  0  0  0  0  0  0  0  0  0  0  0
   10.4570    6.7449  -10.9901 N   0  0  0  0  0  0  0  0  0  0  0  0
    9.3670    6.1197  -10.2174 C   0  0  0  0  0  0  0  0  0  0  0  0
    8.4999    5.6000  -11.3862 C   0  0  0  0  0  0  0  0  0  0  0  0
    9.4426    5.2815  -12.4026 N   0  0  0  0  0  0  0  0  0  0  0  0
    8.9537    5.1686  -13.7342 C   0  0  0  0  0  0  0  0  0  0  0  0
   10.1068    5.0559  -14.6791 C   0  0  0  0  0  0  0  0  0  0  0  0
   11.3469    5.3196  -14.3085 C   0  0  0  0  0  0  0  0  0  0  0  0
   11.6927    5.7573  -12.9048 C   0  0  0  0  0  0  0  0  0  0  0  0
   10.4060    6.3460  -12.3665 C   0  0  0  0  0  0  0  0  0  0  0  0
   11.2099    7.8415   -8.9623 C   0  0  0  0  0  0  0  0  0  0  0  0
   11.0457    9.1808   -8.6302 C   0  0  0  0  0  0  0  0  0  0  0  0
   10.9494    9.5995   -7.3198 C   0  0  0  0  0  0  0  0  0  0  0  0
   11.0233    8.6234   -6.3303 C   0  0  0  0  0  0  0  0  0  0  0  0
   11.1875    7.2788   -6.6477 C   0  0  0  0  0  0  0  0  0  0  0  0
   11.2832    6.8737   -7.9824 C   0  0  0  0  0  0  0  0  0  0  0  0
   10.9236    9.0726   -5.0209 O   0  0  0  0  0  0  0  0  0  0  0  0
   11.9012    8.6269   -4.0917 C   0  0  0  0  0  0  0  0  0  0  0  0
    9.7986    4.6376  -16.0419 C   0  0  0  0  0  0  0  0  0  0  0  0
    9.9111    5.4669  -17.1369 C   0  0  0  0  0  0  0  0  0  0  0  0
    9.6120    5.0522  -18.4285 C   0  0  0  0  0  0  0  0  0  0  0  0
    9.1863    3.7803  -18.6664 C   0  0  0  0  0  0  0  0  0  0  0  0
    9.0619    2.9249  -17.5997 C   0  0  0  0  0  0  0  0  0  0  0  0
    9.3606    3.3411  -16.3148 C   0  0  0  0  0  0  0  0  0  0  0  0
    8.6310    1.6327  -17.8299 O   0  0  0  0  0  0  0  0  0  0  0  0
    8.5722    0.7317  -16.7397 C   0  0  0  0  0  0  0  0  0  0  0  0
  1  2  1  0  0  0
  2  3  1  0  0  0
  3 13  1  0  0  0
 13 14  2  0  0  0
 14 15  1  0  0  0
 15 16  2  0  0  0
 16 19  1  0  0  0
 19 20  1  0  0  0
 16 17  1  0  0  0
 17 18  2  0  0  0
  3  4  2  0  0  0
  4  5  1  0  0  0
  5  6  1  0  0  0
  6  7  1  0  0  0
  7  8  1  0  0  0
  8  9  1  0  0  0
  9 21  1  0  0  0
 21 22  2  0  0  0
 22 23  1  0  0  0
 23 24  2  0  0  0
 24 25  1  0  0  0
 25 27  1  0  0  0
 27 28  1  0  0  0
 25 26  2  0  0  0
  9 10  2  0  0  0
 10 11  1  0  0  0
 11 12  1  0  0  0
 18 13  1  0  0  0
 12  4  1  0  0  0
 12  7  1  0  0  0
 26 21  1  0  0  0
M  CHG 1   4   1
M  END
> <minimizedAffinity>
-8.15381

$$$$
18_0


 28 31  0  0  0  0  0  0  0  0999 V2000
   11.1235    9.5867  -11.0828 H   0  0  0  0  0  0  0  0  0  0  0  0
   11.7311    9.2677  -10.3321 O   0  0  0  0  0  0  0  0  0  0  0  0
   11.1573    8.4789   -9.3155 C   0  0  0  0  0  0  0  0  0  0  0  0
   10.5777    7.3808   -9.7096 N   0  0  0  0  0  0  0  0  0  0  0  0
    9.9470    6.4927   -8.7149 C   0  0  0  0  0  0  0  0  0  0  0  0
    9.1428    5.5815   -9.6693 C   0  0  0  0  0  0  0  0  0  0  0  0
    9.9440    5.5153  -10.8428 N   0  0  0  0  0  0  0  0  0  0  0  0
    9.3072    5.0995  -12.0454 C   0  0  0  0  0  0  0  0  0  0  0  0
   10.2372    5.3066  -13.1975 C   0  0  0  0  0  0  0  0  0  0  0  0
   11.3373    6.0299  -13.0909 C   0  0  0  0  0  0  0  0  0  0  0  0
   11.7364    6.7042  -11.7996 C   0  0  0  0  0  0  0  0  0  0  0  0
   10.4382    6.8500  -11.0344 C   0  0  0  0  0  0  0  0  0  0  0  0
   11.2147    8.8762   -7.9098 C   0  0  0  0  0  0  0  0  0  0  0  0
    9.9945    9.1359   -7.2977 C   0  0  0  0  0  0  0  0  0  0  0  0
    9.9102    9.5192   -5.9757 C   0  0  0  0  0  0  0  0  0  0  0  0
   11.1026    9.6383   -5.2678 C   0  0  0  0  0  0  0  0  0  0  0  0
   12.3315    9.3815   -5.8673 C   0  0  0  0  0  0  0  0  0  0  0  0
   12.3968    8.9940   -7.2090 C   0  0  0  0  0  0  0  0  0  0  0  0
   10.9883   10.0254   -3.9398 O   0  0  0  0  0  0  0  0  0  0  0  0
   11.9097    9.4764   -3.0084 C   0  0  0  0  0  0  0  0  0  0  0  0
    9.8724    4.6678  -14.4570 C   0  0  0  0  0  0  0  0  0  0  0  0
    9.2118    3.4609  -14.5353 C   0  0  0  0  0  0  0  0  0  0  0  0
    8.8729    2.8658  -15.7439 C   0  0  0  0  0  0  0  0  0  0  0  0
    9.1886    3.4674  -16.9246 C   0  0  0  0  0  0  0  0  0  0  0  0
    9.8472    4.6715  -16.8864 C   0  0  0  0  0  0  0  0  0  0  0  0
   10.1831    5.2612  -15.6810 C   0  0  0  0  0  0  0  0  0  0  0  0
   10.1720    5.2903  -18.0781 O   0  0  0  0  0  0  0  0  0  0  0  0
    9.3495    6.3445  -18.5425 C   0  0  0  0  0  0  0  0  0  0  0  0
  1  2  1  0  0  0
  2  3  1  0  0  0
  3 13  1  0  0  0
 13 14  2  0  0  0
 14 15  1  0  0  0
 15 16  2  0  0  0
 16 19  1  0  0  0
 19 20  1  0  0  0
 16 17  1  0  0  0
 17 18  2  0  0  0
  3  4  2  0  0  0
  4  5  1  0  0  0
  5  6  1  0  0  0
  6  7  1  0  0  0
  7  8  1  0  0  0
  8  9  1  0  0  0
  9 21  1  0  0  0
 21 22  2  0  0  0
 22 23  1  0  0  0
 23 24  2  0  0  0
 24 25  1  0  0  0
 25 27  1  0  0  0
 27 28  1  0  0  0
 25 26  2  0  0  0
  9 10  2  0  0  0
 10 11  1  0  0  0
 11 12  1  0  0  0
 18 13  1  0  0  0
 12  4  1  0  0  0
 12  7  1  0  0  0
 26 21  1  0  0  0
M  CHG 1   4   1
M  END
> <minimizedAffinity>
-7.95341

$$$$
18_0


 28 31  0  0  0  0  0  0  0  0999 V2000
   12.7734    8.8977  -11.4526 H   0  0  0  0  0  0  0  0  0  0  0  0
   12.9007    8.2652  -10.6662 O   0  0  0  0  0  0  0  0  0  0  0  0
   11.7451    7.7489  -10.0473 C   0  0  0  0  0  0  0  0  0  0  0  0
   10.9327    7.0904  -10.8240 N   0  0  0  0  0  0  0  0  0  0  0  0
    9.6952    6.5155  -10.2635 C   0  0  0  0  0  0  0  0  0  0  0  0
    8.9599    6.1768  -11.5799 C   0  0  0  0  0  0  0  0  0  0  0  0
   10.0054    5.8491  -12.4869 N   0  0  0  0  0  0  0  0  0  0  0  0
    9.7010    5.8899  -13.8763 C   0  0  0  0  0  0  0  0  0  0  0  0
   10.9616    5.7403  -14.6659 C   0  0  0  0  0  0  0  0  0  0  0  0
   12.1552    5.8516  -14.1112 C   0  0  0  0  0  0  0  0  0  0  0  0
   12.3362    6.1413  -12.6399 C   0  0  0  0  0  0  0  0  0  0  0  0
   11.0419    6.8083  -12.2257 C   0  0  0  0  0  0  0  0  0  0  0  0
   11.4839    7.9448   -8.6223 C   0  0  0  0  0  0  0  0  0  0  0  0
   11.2711    9.2561   -8.2145 C   0  0  0  0  0  0  0  0  0  0  0  0
   11.0143    9.5765   -6.8980 C   0  0  0  0  0  0  0  0  0  0  0  0
   10.9754    8.5296   -5.9816 C   0  0  0  0  0  0  0  0  0  0  0  0
   11.1865    7.2120   -6.3753 C   0  0  0  0  0  0  0  0  0  0  0  0
   11.4455    6.9068   -7.7149 C   0  0  0  0  0  0  0  0  0  0  0  0
   10.7152    8.8806   -4.6643 O   0  0  0  0  0  0  0  0  0  0  0  0
   11.3260   10.0599   -4.1602 C   0  0  0  0  0  0  0  0  0  0  0  0
   10.8136    5.4629  -16.0901 C   0  0  0  0  0  0  0  0  0  0  0  0
    9.6305    5.0550  -16.6675 C   0  0  0  0  0  0  0  0  0  0  0  0
    9.5073    4.7938  -18.0263 C   0  0  0  0  0  0  0  0  0  0  0  0
   10.5768    4.9344  -18.8582 C   0  0  0  0  0  0  0  0  0  0  0  0
   11.7727    5.3393  -18.3189 C   0  0  0  0  0  0  0  0  0  0  0  0
   11.8918    5.5985  -16.9653 C   0  0  0  0  0  0  0  0  0  0  0  0
   12.8637    5.4851  -19.1538 O   0  0  0  0  0  0  0  0  0  0  0  0
   13.1376    4.4666  -20.0979 C   0  0  0  0  0  0  0  0  0  0  0  0
  1  2  1  0  0  0
  2  3  1  0  0  0
  3 13  1  0  0  0
 13 14  2  0  0  0
 14 15  1  0  0  0
 15 16  2  0  0  0
 16 19  1  0  0  0
 19 20  1  0  0  0
 16 17  1  0  0  0
 17 18  2  0  0  0
  3  4  2  0  0  0
  4  5  1  0  0  0
  5  6  1  0  0  0
  6  7  1  0  0  0
  7  8  1  0  0  0
  8  9  1  0  0  0
  9 21  1  0  0  0
 21 22  2  0  0  0
 22 23  1  0  0  0
 23 24  2  0  0  0
 24 25  1  0  0  0
 25 27  1  0  0  0
 27 28  1  0  0  0
 25 26  2  0  0  0
  9 10  2  0  0  0
 10 11  1  0  0  0
 11 12  1  0  0  0
 18 13  1  0  0  0
 12  4  1  0  0  0
 12  7  1  0  0  0
 26 21  1  0  0  0
M  CHG 1   4   1
M  END
> <minimizedAffinity>
-6.90146

$$$$
