18_1


 33 37  0  0  0  0  0  0  0  0999 V2000
    4.6017    0.3804  -14.2574 C   0  0  0  0  0  0  0  0  0  0  0  0
    4.2744    1.3586  -13.3150 C   0  0  0  0  0  0  0  0  0  0  0  0
    5.3639    2.1781  -13.1708 C   0  0  0  0  0  0  0  0  0  0  0  0
    5.5151    3.3081  -12.4018 C   0  0  0  0  0  0  0  0  0  0  0  0
    6.6996    4.0079  -12.4754 C   0  0  0  0  0  0  0  0  0  0  0  0
    7.6402    3.5451  -13.2952 N   0  0  0  0  0  0  0  0  0  0  0  0
    7.5075    2.4222  -14.0652 C   0  0  0  0  0  0  0  0  0  0  0  0
    6.3306    1.6869  -14.0200 C   0  0  0  0  0  0  0  0  0  0  0  0
    5.8788    0.5886  -14.6851 N   0  0  0  0  0  0  0  0  0  0  0  0
    8.6030    2.1404  -14.9532 C   0  0  0  0  0  0  0  0  0  0  0  0
    9.4150    1.0455  -14.6164 C   0  0  0  0  0  0  0  0  0  0  0  0
   10.4348    0.6778  -15.4623 C   0  0  0  0  0  0  0  0  0  0  0  0
   10.6972    1.3551  -16.6525 C   0  0  0  0  0  0  0  0  0  0  0  0
    9.9016    2.4041  -16.9538 N   0  0  0  0  0  0  0  0  0  0  0  0
    8.9036    2.7643  -16.1275 C   0  0  0  0  0  0  0  0  0  0  0  0
    3.2960   -0.9807  -15.9836 N   0  0  0  0  0  0  0  0  0  0  0  0
    3.6253   -0.6050  -14.6681 C   0  0  0  0  0  0  0  0  0  0  0  0
    2.9734   -1.2107  -13.7465 O   0  0  0  0  0  0  0  0  0  0  0  0
    3.5824   -1.8325  -16.4771 H   0  0  0  0  0  0  0  0  0  0  0  0
    2.6745   -0.3183  -16.5348 H   0  0  0  0  0  0  0  0  0  0  0  0
    6.8782    5.1519  -11.7101 O   0  0  0  0  0  0  0  0  0  0  0  0
    7.9449    6.0575  -11.9202 C   0  0  0  0  0  0  0  0  0  0  0  0
    9.1373    5.7333  -11.0532 C   0  0  0  0  0  0  0  0  0  0  0  0
   10.2343    6.7336  -11.3145 C   0  0  0  0  0  0  0  0  0  0  0  0
   10.2489    7.5368  -10.0322 C   0  0  0  0  0  0  0  0  0  0  0  0
    9.9242    6.4752   -9.0025 C   0  0  0  0  0  0  0  0  0  0  0  0
    8.8166    5.7950   -9.6451 N   0  0  0  0  0  0  0  0  0  0  0  0
    8.7175    4.8697   -9.1910 H   0  0  0  0  0  0  0  0  0  0  0  0
    6.5836   -0.2123  -15.6226 C   0  0  0  0  0  0  0  0  0  0  0  0
    6.4631    0.1278  -17.0703 C   0  0  0  0  0  0  0  0  0  0  0  0
    7.5350   -0.1809  -18.0396 C   0  0  0  0  0  0  0  0  0  0  0  0
    6.6497   -1.2715  -18.6027 C   0  0  0  0  0  0  0  0  0  0  0  0
    5.6496   -0.8378  -17.7672 O   0  0  0  0  0  0  0  0  0  0  0  0
 16 17  1  0  0  0
 17 18  2  0  0  0
 17  1  1  0  0  0
  1  2  2  0  0  0
  2  3  1  0  0  0
  3  4  2  0  0  0
  4  5  1  0  0  0
  5 21  1  0  0  0
 21 22  1  0  0  0
 22 23  1  0  0  0
 23 24  1  0  0  0
 24 25  1  0  0  0
 25 26  1  0  0  0
 26 27  1  0  0  0
  5  6  2  0  0  0
  6  7  1  0  0  0
  7 10  1  0  0  0
 10 11  2  0  0  0
 11 12  1  0  0  0
 12 13  2  0  0  0
 13 14  1  0  0  0
 14 15  2  0  0  0
  7  8  2  0  0  0
  8  9  1  0  0  0
  9 29  1  0  0  0
 29 30  1  0  0  0
 30 31  1  0  0  0
 31 32  1  0  0  0
 32 33  1  0  0  0
  9  1  1  0  0  0
 33 30  1  0  0  0
  8  3  1  0  0  0
 27 23  1  0  0  0
 15 10  1  0  0  0
 16 19  1  0  0  0
 16 20  1  0  0  0
 27 28  1  0  0  0
M  END
> <minimizedAffinity>
-9.15076

$$$$
18_1


 33 37  0  0  0  0  0  0  0  0999 V2000
    6.8959    4.7341  -12.5967 C   0  0  0  0  0  0  0  0  0  0  0  0
    5.7636    3.9798  -12.2790 C   0  0  0  0  0  0  0  0  0  0  0  0
    5.7970    2.8393  -13.0388 C   0  0  0  0  0  0  0  0  0  0  0  0
    4.9359    1.7672  -13.0488 C   0  0  0  0  0  0  0  0  0  0  0  0
    5.2201    0.6947  -13.8656 C   0  0  0  0  0  0  0  0  0  0  0  0
    6.3237    0.7583  -14.6065 N   0  0  0  0  0  0  0  0  0  0  0  0
    7.1898    1.8172  -14.6105 C   0  0  0  0  0  0  0  0  0  0  0  0
    6.9399    2.9189  -13.8032 C   0  0  0  0  0  0  0  0  0  0  0  0
    7.6163    4.0717  -13.5452 N   0  0  0  0  0  0  0  0  0  0  0  0
    8.3727    1.6541  -15.4118 C   0  0  0  0  0  0  0  0  0  0  0  0
    9.3880    0.8488  -14.8711 C   0  0  0  0  0  0  0  0  0  0  0  0
   10.5140    0.5928  -15.6176 C   0  0  0  0  0  0  0  0  0  0  0  0
   10.6896    1.1056  -16.9022 C   0  0  0  0  0  0  0  0  0  0  0  0
    9.6984    1.8766  -17.3996 N   0  0  0  0  0  0  0  0  0  0  0  0
    8.5965    2.1272  -16.6706 C   0  0  0  0  0  0  0  0  0  0  0  0
    8.1105    6.1933  -10.8842 N   0  0  0  0  0  0  0  0  0  0  0  0
    7.1716    5.9771  -11.9098 C   0  0  0  0  0  0  0  0  0  0  0  0
    6.4921    7.0067  -12.2558 O   0  0  0  0  0  0  0  0  0  0  0  0
    9.0257    6.6483  -10.9650 H   0  0  0  0  0  0  0  0  0  0  0  0
    7.8491    5.8585   -9.9104 H   0  0  0  0  0  0  0  0  0  0  0  0
    4.3678   -0.4003  -13.8946 O   0  0  0  0  0  0  0  0  0  0  0  0
    3.3242   -0.5363  -14.8403 C   0  0  0  0  0  0  0  0  0  0  0  0
    3.7421   -1.3767  -16.0225 C   0  0  0  0  0  0  0  0  0  0  0  0
    3.8571   -0.5016  -17.2445 C   0  0  0  0  0  0  0  0  0  0  0  0
    5.3522   -0.4671  -17.4755 C   0  0  0  0  0  0  0  0  0  0  0  0
    5.7587   -1.8644  -17.0571 C   0  0  0  0  0  0  0  0  0  0  0  0
    5.0267   -2.0057  -15.8135 N   0  0  0  0  0  0  0  0  0  0  0  0
    4.9745   -3.0174  -15.5994 H   0  0  0  0  0  0  0  0  0  0  0  0
    8.8191    4.5283  -14.1466 C   0  0  0  0  0  0  0  0  0  0  0  0
   10.0996    4.3127  -13.4117 C   0  0  0  0  0  0  0  0  0  0  0  0
   11.3841    4.1187  -14.1161 C   0  0  0  0  0  0  0  0  0  0  0  0
   11.7891    5.5053  -13.6650 C   0  0  0  0  0  0  0  0  0  0  0  0
   10.6358    5.5583  -12.9211 O   0  0  0  0  0  0  0  0  0  0  0  0
 16 17  1  0  0  0
 17 18  2  0  0  0
 17  1  1  0  0  0
  1  2  2  0  0  0
  2  3  1  0  0  0
  3  4  2  0  0  0
  4  5  1  0  0  0
  5 21  1  0  0  0
 21 22  1  0  0  0
 22 23  1  0  0  0
 23 24  1  0  0  0
 24 25  1  0  0  0
 25 26  1  0  0  0
 26 27  1  0  0  0
  5  6  2  0  0  0
  6  7  1  0  0  0
  7 10  1  0  0  0
 10 11  2  0  0  0
 11 12  1  0  0  0
 12 13  2  0  0  0
 13 14  1  0  0  0
 14 15  2  0  0  0
  7  8  2  0  0  0
  8  9  1  0  0  0
  9 29  1  0  0  0
 29 30  1  0  0  0
 30 31  1  0  0  0
 31 32  1  0  0  0
 32 33  1  0  0  0
  9  1  1  0  0  0
 33 30  1  0  0  0
  8  3  1  0  0  0
 27 23  1  0  0  0
 15 10  1  0  0  0
 16 19  1  0  0  0
 16 20  1  0  0  0
 27 28  1  0  0  0
M  END
> <minimizedAffinity>
-8.96758

$$$$
18_1


 33 37  0  0  0  0  0  0  0  0999 V2000
    7.6593    4.3965  -12.9136 C   0  0  0  0  0  0  0  0  0  0  0  0
    6.9032    3.2296  -13.0502 C   0  0  0  0  0  0  0  0  0  0  0  0
    7.3505    2.5724  -14.1670 C   0  0  0  0  0  0  0  0  0  0  0  0
    6.9591    1.3611  -14.6869 C   0  0  0  0  0  0  0  0  0  0  0  0
    7.6117    0.8731  -15.7979 C   0  0  0  0  0  0  0  0  0  0  0  0
    8.5942    1.6101  -16.3101 N   0  0  0  0  0  0  0  0  0  0  0  0
    8.9949    2.8176  -15.8073 C   0  0  0  0  0  0  0  0  0  0  0  0
    8.3628    3.3463  -14.6898 C   0  0  0  0  0  0  0  0  0  0  0  0
    8.5578    4.4630  -13.9362 N   0  0  0  0  0  0  0  0  0  0  0  0
   10.1354    3.4141  -16.4486 C   0  0  0  0  0  0  0  0  0  0  0  0
   11.3909    2.8834  -16.1115 C   0  0  0  0  0  0  0  0  0  0  0  0
   12.5153    3.3595  -16.7440 C   0  0  0  0  0  0  0  0  0  0  0  0
   12.4580    4.3576  -17.7159 C   0  0  0  0  0  0  0  0  0  0  0  0
   11.2386    4.8510  -18.0225 N   0  0  0  0  0  0  0  0  0  0  0  0
   10.1383    4.3858  -17.4050 C   0  0  0  0  0  0  0  0  0  0  0  0
    6.5380    6.3394  -11.6869 N   0  0  0  0  0  0  0  0  0  0  0  0
    7.4578    5.2790  -11.7851 C   0  0  0  0  0  0  0  0  0  0  0  0
    8.1923    5.0941  -10.7519 O   0  0  0  0  0  0  0  0  0  0  0  0
    5.6495    6.3464  -11.1755 H   0  0  0  0  0  0  0  0  0  0  0  0
    6.7853    7.2425  -12.1889 H   0  0  0  0  0  0  0  0  0  0  0  0
    7.2367   -0.3472  -16.3426 O   0  0  0  0  0  0  0  0  0  0  0  0
    6.1661   -0.4830  -17.2577 C   0  0  0  0  0  0  0  0  0  0  0  0
    5.0274   -1.2856  -16.6764 C   0  0  0  0  0  0  0  0  0  0  0  0
    5.3791   -1.7122  -15.2740 C   0  0  0  0  0  0  0  0  0  0  0  0
    4.4462   -0.8646  -14.4368 C   0  0  0  0  0  0  0  0  0  0  0  0
    3.2132   -0.8092  -15.3139 C   0  0  0  0  0  0  0  0  0  0  0  0
    3.8043   -0.5185  -16.6055 N   0  0  0  0  0  0  0  0  0  0  0  0
    3.1050   -0.7665  -17.3278 H   0  0  0  0  0  0  0  0  0  0  0  0
    9.4862    5.5139  -14.1615 C   0  0  0  0  0  0  0  0  0  0  0  0
   10.7948    5.4624  -13.4465 C   0  0  0  0  0  0  0  0  0  0  0  0
   12.0420    5.9667  -14.0580 C   0  0  0  0  0  0  0  0  0  0  0  0
   11.9855    7.1366  -13.0997 C   0  0  0  0  0  0  0  0  0  0  0  0
   10.9100    6.5368  -12.4914 O   0  0  0  0  0  0  0  0  0  0  0  0
 16 17  1  0  0  0
 17 18  2  0  0  0
 17  1  1  0  0  0
  1  2  2  0  0  0
  2  3  1  0  0  0
  3  4  2  0  0  0
  4  5  1  0  0  0
  5 21  1  0  0  0
 21 22  1  0  0  0
 22 23  1  0  0  0
 23 24  1  0  0  0
 24 25  1  0  0  0
 25 26  1  0  0  0
 26 27  1  0  0  0
  5  6  2  0  0  0
  6  7  1  0  0  0
  7 10  1  0  0  0
 10 11  2  0  0  0
 11 12  1  0  0  0
 12 13  2  0  0  0
 13 14  1  0  0  0
 14 15  2  0  0  0
  7  8  2  0  0  0
  8  9  1  0  0  0
  9 29  1  0  0  0
 29 30  1  0  0  0
 30 31  1  0  0  0
 31 32  1  0  0  0
 32 33  1  0  0  0
  9  1  1  0  0  0
 33 30  1  0  0  0
  8  3  1  0  0  0
 27 23  1  0  0  0
 15 10  1  0  0  0
 16 19  1  0  0  0
 16 20  1  0  0  0
 27 28  1  0  0  0
M  END
> <minimizedAffinity>
-7.69850

$$$$
