10_1


 23 24  0  0  0  0  0  0  0  0999 V2000
   11.1205    7.6267   -8.8701 N   0  0  0  0  0  0  0  0  0  0  0  0
   11.4344    7.5462  -10.1963 C   0  0  0  0  0  0  0  0  0  0  0  0
   12.4399    8.1603  -10.6344 O   0  0  0  0  0  0  0  0  0  0  0  0
   10.6872    6.8112  -11.0887 C   0  0  0  0  0  0  0  0  0  0  0  0
   10.9848    6.7144  -12.4338 C   0  0  0  0  0  0  0  0  0  0  0  0
   12.1505    7.4187  -12.9752 C   0  0  0  0  0  0  0  0  0  0  0  0
   10.1790    5.9537  -13.2540 C   0  0  0  0  0  0  0  0  0  0  0  0
    9.0696    5.2672  -12.8101 C   0  0  0  0  0  0  0  0  0  0  0  0
    8.2264    4.4573  -13.7290 C   0  0  0  0  0  0  0  0  0  0  0  0
    8.7726    5.3641  -11.4663 C   0  0  0  0  0  0  0  0  0  0  0  0
    9.5768    6.1237  -10.6455 C   0  0  0  0  0  0  0  0  0  0  0  0
    9.2880    6.2183   -9.3385 N   0  0  0  0  0  0  0  0  0  0  0  0
    8.4447    5.6970   -8.9992 H   0  0  0  0  0  0  0  0  0  0  0  0
   10.0450    6.9543   -8.4762 C   0  0  0  0  0  0  0  0  0  0  0  0
    9.5277    6.9950   -6.9338 S   0  0  0  0  0  0  0  0  0  0  0  0
   11.9721    8.4522   -8.0614 C   0  0  0  0  0  0  0  0  0  0  0  0
   11.2685    9.6626   -7.5707 C   0  0  0  0  0  0  0  0  0  0  0  0
   11.7827   10.3632   -6.3787 C   0  0  0  0  0  0  0  0  0  0  0  0
   10.9193   11.2971   -4.1072 H   0  0  0  0  0  0  0  0  0  0  0  0
   10.8377   10.3319   -3.7562 O   0  0  0  0  0  0  0  0  0  0  0  0
   11.8345    9.4559   -4.1641 C   0  0  0  0  0  0  0  0  0  0  0  0
   12.2846    9.4544   -5.3703 N   0  0  0  0  0  0  0  0  0  0  0  0
   12.4520    8.4564   -3.2316 C   0  0  0  0  0  0  0  0  0  0  0  0
 19 20  1  0  0  0
 20 21  1  0  0  0
 21 22  2  0  0  0
 22 18  1  0  0  0
 18 17  1  0  0  0
 17 16  1  0  0  0
 16  1  1  0  0  0
  1  2  1  0  0  0
  2  3  2  0  0  0
  2  4  1  0  0  0
  4  5  2  0  0  0
  5  6  1  0  0  0
  5  7  1  0  0  0
  7  8  2  0  0  0
  8  9  1  0  0  0
  8 10  1  0  0  0
 10 11  2  0  0  0
 11 12  1  0  0  0
 12 13  1  0  0  0
 12 14  1  0  0  0
 14 15  2  0  0  0
 21 23  1  0  0  0
 14  1  1  0  0  0
 11  4  1  0  0  0
M  END
> <minimizedAffinity>
-8.66440

$$$$
10_1


 23 24  0  0  0  0  0  0  0  0999 V2000
   10.6577    7.6366   -7.6494 N   0  0  0  0  0  0  0  0  0  0  0  0
   10.0823    6.8906   -8.6374 C   0  0  0  0  0  0  0  0  0  0  0  0
    9.1099    6.1425   -8.3637 O   0  0  0  0  0  0  0  0  0  0  0  0
   10.5265    6.9217   -9.9400 C   0  0  0  0  0  0  0  0  0  0  0  0
    9.9607    6.1769  -10.9561 C   0  0  0  0  0  0  0  0  0  0  0  0
    8.8258    5.2952  -10.6690 C   0  0  0  0  0  0  0  0  0  0  0  0
   10.4722    6.2721  -12.2329 C   0  0  0  0  0  0  0  0  0  0  0  0
   11.5360    7.0805  -12.5705 C   0  0  0  0  0  0  0  0  0  0  0  0
   12.0574    7.1541  -13.9611 C   0  0  0  0  0  0  0  0  0  0  0  0
   12.1009    7.8244  -11.5551 C   0  0  0  0  0  0  0  0  0  0  0  0
   11.5909    7.7303  -10.2790 C   0  0  0  0  0  0  0  0  0  0  0  0
   12.1403    8.4536   -9.2911 N   0  0  0  0  0  0  0  0  0  0  0  0
   12.9494    9.0688   -9.5460 H   0  0  0  0  0  0  0  0  0  0  0  0
   11.6809    8.4033   -8.0087 C   0  0  0  0  0  0  0  0  0  0  0  0
   12.4902    9.3120   -6.9280 S   0  0  0  0  0  0  0  0  0  0  0  0
   10.1089    7.4833   -6.3319 C   0  0  0  0  0  0  0  0  0  0  0  0
   11.1102    6.9586   -5.3711 C   0  0  0  0  0  0  0  0  0  0  0  0
   10.7301    6.7813   -3.9568 C   0  0  0  0  0  0  0  0  0  0  0  0
   11.0986    9.3550   -4.0882 H   0  0  0  0  0  0  0  0  0  0  0  0
   11.3576    9.3557   -3.0911 O   0  0  0  0  0  0  0  0  0  0  0  0
   12.0927    8.2604   -2.6584 C   0  0  0  0  0  0  0  0  0  0  0  0
   11.8192    7.0637   -3.0464 N   0  0  0  0  0  0  0  0  0  0  0  0
   13.2502    8.3961   -1.7141 C   0  0  0  0  0  0  0  0  0  0  0  0
 19 20  1  0  0  0
 20 21  1  0  0  0
 21 22  2  0  0  0
 22 18  1  0  0  0
 18 17  1  0  0  0
 17 16  1  0  0  0
 16  1  1  0  0  0
  1  2  1  0  0  0
  2  3  2  0  0  0
  2  4  1  0  0  0
  4  5  2  0  0  0
  5  6  1  0  0  0
  5  7  1  0  0  0
  7  8  2  0  0  0
  8  9  1  0  0  0
  8 10  1  0  0  0
 10 11  2  0  0  0
 11 12  1  0  0  0
 12 13  1  0  0  0
 12 14  1  0  0  0
 14 15  2  0  0  0
 21 23  1  0  0  0
 14  1  1  0  0  0
 11  4  1  0  0  0
M  END
> <minimizedAffinity>
-7.89333

$$$$
10_1


 23 24  0  0  0  0  0  0  0  0999 V2000
   10.2827    7.7419   -8.6115 N   0  0  0  0  0  0  0  0  0  0  0  0
   10.8699    8.6692   -7.7998 C   0  0  0  0  0  0  0  0  0  0  0  0
   11.1375    9.8105   -8.2535 O   0  0  0  0  0  0  0  0  0  0  0  0
   11.1870    8.4058   -6.4864 C   0  0  0  0  0  0  0  0  0  0  0  0
   11.7807    9.3271   -5.6461 C   0  0  0  0  0  0  0  0  0  0  0  0
   12.1050   10.6663   -6.1453 C   0  0  0  0  0  0  0  0  0  0  0  0
   12.0620    8.9748   -4.3432 C   0  0  0  0  0  0  0  0  0  0  0  0
   11.7836    7.7345   -3.8110 C   0  0  0  0  0  0  0  0  0  0  0  0
   12.1036    7.3948   -2.3992 C   0  0  0  0  0  0  0  0  0  0  0  0
   11.1905    6.8144   -4.6507 C   0  0  0  0  0  0  0  0  0  0  0  0
   10.9087    7.1650   -5.9527 C   0  0  0  0  0  0  0  0  0  0  0  0
   10.3321    6.2701   -6.7697 N   0  0  0  0  0  0  0  0  0  0  0  0
   10.1197    5.3264   -6.3667 H   0  0  0  0  0  0  0  0  0  0  0  0
   10.0293    6.5571   -8.0674 C   0  0  0  0  0  0  0  0  0  0  0  0
    9.3724    5.3427   -8.9289 S   0  0  0  0  0  0  0  0  0  0  0  0
   10.0343    8.1454   -9.9665 C   0  0  0  0  0  0  0  0  0  0  0  0
   11.0693    7.6317  -10.8972 C   0  0  0  0  0  0  0  0  0  0  0  0
   10.6520    6.9952  -12.1609 C   0  0  0  0  0  0  0  0  0  0  0  0
   10.2178    4.6552  -13.2160 H   0  0  0  0  0  0  0  0  0  0  0  0
    9.3493    4.5831  -12.6666 O   0  0  0  0  0  0  0  0  0  0  0  0
    8.6314    5.7618  -12.5163 C   0  0  0  0  0  0  0  0  0  0  0  0
    9.2139    6.8858  -12.2825 N   0  0  0  0  0  0  0  0  0  0  0  0
    7.1353    5.8057  -12.6158 C   0  0  0  0  0  0  0  0  0  0  0  0
 19 20  1  0  0  0
 20 21  1  0  0  0
 21 22  2  0  0  0
 22 18  1  0  0  0
 18 17  1  0  0  0
 17 16  1  0  0  0
 16  1  1  0  0  0
  1  2  1  0  0  0
  2  3  2  0  0  0
  2  4  1  0  0  0
  4  5  2  0  0  0
  5  6  1  0  0  0
  5  7  1  0  0  0
  7  8  2  0  0  0
  8  9  1  0  0  0
  8 10  1  0  0  0
 10 11  2  0  0  0
 11 12  1  0  0  0
 12 13  1  0  0  0
 12 14  1  0  0  0
 14 15  2  0  0  0
 21 23  1  0  0  0
 14  1  1  0  0  0
 11  4  1  0  0  0
M  END
> <minimizedAffinity>
-7.83783

$$$$
10_1


 23 24  0  0  0  0  0  0  0  0999 V2000
   10.3475    7.6135   -9.0599 N   0  0  0  0  0  0  0  0  0  0  0  0
   10.9205    8.5432   -8.2408 C   0  0  0  0  0  0  0  0  0  0  0  0
   11.2583    9.6595   -8.7098 O   0  0  0  0  0  0  0  0  0  0  0  0
   11.1483    8.3090   -6.9036 C   0  0  0  0  0  0  0  0  0  0  0  0
   11.7258    9.2334   -6.0554 C   0  0  0  0  0  0  0  0  0  0  0  0
   12.1306   10.5438   -6.5720 C   0  0  0  0  0  0  0  0  0  0  0  0
   11.9151    8.9113   -4.7283 C   0  0  0  0  0  0  0  0  0  0  0  0
   11.5579    7.6991   -4.1788 C   0  0  0  0  0  0  0  0  0  0  0  0
   11.7799    7.3916   -2.7410 C   0  0  0  0  0  0  0  0  0  0  0  0
   10.9810    6.7759   -5.0264 C   0  0  0  0  0  0  0  0  0  0  0  0
   10.7912    7.0963   -6.3525 C   0  0  0  0  0  0  0  0  0  0  0  0
   10.2303    6.1984   -7.1772 N   0  0  0  0  0  0  0  0  0  0  0  0
    9.9581    5.2760   -6.7611 H   0  0  0  0  0  0  0  0  0  0  0  0
   10.0166    6.4562   -8.4986 C   0  0  0  0  0  0  0  0  0  0  0  0
    9.3661    5.2407   -9.3634 S   0  0  0  0  0  0  0  0  0  0  0  0
   10.1961    7.9839  -10.4385 C   0  0  0  0  0  0  0  0  0  0  0  0
   11.3635    7.5708  -11.2556 C   0  0  0  0  0  0  0  0  0  0  0  0
   11.1415    6.8023  -12.4951 C   0  0  0  0  0  0  0  0  0  0  0  0
   12.2069    4.7944  -13.7641 H   0  0  0  0  0  0  0  0  0  0  0  0
   12.0414    5.2859  -14.6543 O   0  0  0  0  0  0  0  0  0  0  0  0
   12.2233    6.6619  -14.6259 C   0  0  0  0  0  0  0  0  0  0  0  0
   11.8153    7.3800  -13.6383 N   0  0  0  0  0  0  0  0  0  0  0  0
   12.9045    7.4021  -15.7386 C   0  0  0  0  0  0  0  0  0  0  0  0
 19 20  1  0  0  0
 20 21  1  0  0  0
 21 22  2  0  0  0
 22 18  1  0  0  0
 18 17  1  0  0  0
 17 16  1  0  0  0
 16  1  1  0  0  0
  1  2  1  0  0  0
  2  3  2  0  0  0
  2  4  1  0  0  0
  4  5  2  0  0  0
  5  6  1  0  0  0
  5  7  1  0  0  0
  7  8  2  0  0  0
  8  9  1  0  0  0
  8 10  1  0  0  0
 10 11  2  0  0  0
 11 12  1  0  0  0
 12 13  1  0  0  0
 12 14  1  0  0  0
 14 15  2  0  0  0
 21 23  1  0  0  0
 14  1  1  0  0  0
 11  4  1  0  0  0
M  END
> <minimizedAffinity>
-7.73360

$$$$
10_1


 23 24  0  0  0  0  0  0  0  0999 V2000
   10.8466    7.3067   -9.2907 N   0  0  0  0  0  0  0  0  0  0  0  0
   11.6896    7.7242  -10.2799 C   0  0  0  0  0  0  0  0  0  0  0  0
   12.5605    8.5946  -10.0266 O   0  0  0  0  0  0  0  0  0  0  0  0
   11.6274    7.2269  -11.5620 C   0  0  0  0  0  0  0  0  0  0  0  0
   12.4690    7.6333  -12.5788 C   0  0  0  0  0  0  0  0  0  0  0  0
   13.4947    8.6464  -12.3152 C   0  0  0  0  0  0  0  0  0  0  0  0
   12.3338    7.0790  -13.8338 C   0  0  0  0  0  0  0  0  0  0  0  0
   11.3919    6.1236  -14.1487 C   0  0  0  0  0  0  0  0  0  0  0  0
   11.2794    5.5510  -15.5164 C   0  0  0  0  0  0  0  0  0  0  0  0
   10.5513    5.7179  -13.1327 C   0  0  0  0  0  0  0  0  0  0  0  0
   10.6852    6.2707  -11.8782 C   0  0  0  0  0  0  0  0  0  0  0  0
    9.8676    5.8765  -10.8898 N   0  0  0  0  0  0  0  0  0  0  0  0
    9.1507    5.1501  -11.1274 H   0  0  0  0  0  0  0  0  0  0  0  0
    9.9505    6.3863   -9.6283 C   0  0  0  0  0  0  0  0  0  0  0  0
    8.8538    5.8284   -8.5632 S   0  0  0  0  0  0  0  0  0  0  0  0
   11.0073    7.9320   -8.0086 C   0  0  0  0  0  0  0  0  0  0  0  0
   11.3296    6.9469   -6.9470 C   0  0  0  0  0  0  0  0  0  0  0  0
   10.6607    7.0528   -5.6365 C   0  0  0  0  0  0  0  0  0  0  0  0
   11.0810    9.6218   -5.6659 H   0  0  0  0  0  0  0  0  0  0  0  0
   11.1721    9.6055   -4.6398 O   0  0  0  0  0  0  0  0  0  0  0  0
   11.8108    8.4930   -4.1090 C   0  0  0  0  0  0  0  0  0  0  0  0
   11.5886    7.3060   -4.5551 N   0  0  0  0  0  0  0  0  0  0  0  0
   12.7986    8.5979   -2.9850 C   0  0  0  0  0  0  0  0  0  0  0  0
 19 20  1  0  0  0
 20 21  1  0  0  0
 21 22  2  0  0  0
 22 18  1  0  0  0
 18 17  1  0  0  0
 17 16  1  0  0  0
 16  1  1  0  0  0
  1  2  1  0  0  0
  2  3  2  0  0  0
  2  4  1  0  0  0
  4  5  2  0  0  0
  5  6  1  0  0  0
  5  7  1  0  0  0
  7  8  2  0  0  0
  8  9  1  0  0  0
  8 10  1  0  0  0
 10 11  2  0  0  0
 11 12  1  0  0  0
 12 13  1  0  0  0
 12 14  1  0  0  0
 14 15  2  0  0  0
 21 23  1  0  0  0
 14  1  1  0  0  0
 11  4  1  0  0  0
M  END
> <minimizedAffinity>
-6.68483

$$$$
