14_0


 28 30  0  0  0  0  0  0  0  0999 V2000
   10.6717    0.7210  -16.0765 N   0  0  0  0  0  0  0  0  0  0  0  0
   10.5382    2.0660  -15.6216 C   0  0  0  0  0  0  0  0  0  0  0  0
   11.3105    3.0198  -16.1993 N   0  0  0  0  0  0  0  0  0  0  0  0
   11.1571    4.2736  -15.7452 C   0  0  0  0  0  0  0  0  0  0  0  0
   10.2833    4.5933  -14.7626 N   0  0  0  0  0  0  0  0  0  0  0  0
    9.5023    3.6638  -14.1700 C   0  0  0  0  0  0  0  0  0  0  0  0
    9.6348    2.3683  -14.6122 C   0  0  0  0  0  0  0  0  0  0  0  0
   10.5058   -0.1078  -15.4696 H   0  0  0  0  0  0  0  0  0  0  0  0
   10.9484    0.5502  -17.0622 H   0  0  0  0  0  0  0  0  0  0  0  0
    8.6136    4.0718  -13.1493 N   0  0  0  0  0  0  0  0  0  0  0  0
    7.1737    4.1351  -13.3077 C   0  0  0  0  0  0  0  0  0  0  0  0
    6.5658    5.2821  -12.5444 C   0  0  0  0  0  0  0  0  0  0  0  0
    7.5571    6.3773  -12.2483 C   0  0  0  0  0  0  0  0  0  0  0  0
    8.7436    5.8781  -11.4850 C   0  0  0  0  0  0  0  0  0  0  0  0
    8.4799    5.9235  -10.0582 N   0  0  0  0  0  0  0  0  0  0  0  0
    9.1244    4.4659  -11.8294 C   0  0  0  0  0  0  0  0  0  0  0  0
    8.0870    4.9932   -9.7915 H   0  0  0  0  0  0  0  0  0  0  0  0
    9.4031    6.0768   -9.5746 H   0  0  0  0  0  0  0  0  0  0  0  0
    8.8920    1.3776  -14.0734 O   0  0  0  0  0  0  0  0  0  0  0  0
    7.6922    0.8534  -14.4324 C   0  0  0  0  0  0  0  0  0  0  0  0
    7.1318    1.2969  -15.6379 C   0  0  0  0  0  0  0  0  0  0  0  0
    5.9161    0.8052  -16.0609 C   0  0  0  0  0  0  0  0  0  0  0  0
    5.2238   -0.1168  -15.3335 C   0  0  0  0  0  0  0  0  0  0  0  0
    5.7505   -0.5704  -14.1451 C   0  0  0  0  0  0  0  0  0  0  0  0
    6.9713   -0.0794  -13.7161 C   0  0  0  0  0  0  0  0  0  0  0  0
    3.9582   -0.6166  -15.7920 N   0  0  0  0  0  0  0  0  0  0  0  0
    3.8314   -0.9767  -16.9777 O   0  0  0  0  0  0  0  0  0  0  0  0
    2.8642   -0.7190  -14.9761 O   0  0  0  0  0  0  0  0  0  0  0  0
  1  2  1  0  0  0
  2  3  2  0  0  0
  3  4  1  0  0  0
  4  5  2  0  0  0
  5  6  1  0  0  0
  6 10  1  0  0  0
 10 11  1  0  0  0
 11 12  1  0  0  0
 12 13  1  0  0  0
 13 14  1  0  0  0
 14 15  1  0  0  0
 14 16  1  0  0  0
  6  7  2  0  0  0
  7 19  1  0  0  0
 19 20  1  0  0  0
 20 21  2  0  0  0
 21 22  1  0  0  0
 22 23  2  0  0  0
 23 26  1  0  0  0
 26 27  2  0  0  0
 26 28  1  0  0  0
 23 24  1  0  0  0
 24 25  2  0  0  0
  7  2  1  0  0  0
 25 20  1  0  0  0
 16 10  1  0  0  0
  1  8  1  0  0  0
  1  9  1  0  0  0
 15 17  1  0  0  0
 15 18  1  0  0  0
M  CHG 1  26   1
M  CHG 1  28  -1
M  END
> <minimizedAffinity>
-7.85390

$$$$
14_0


 28 30  0  0  0  0  0  0  0  0999 V2000
   12.6928    4.0997  -15.5463 N   0  0  0  0  0  0  0  0  0  0  0  0
   12.3805    5.3472  -14.9301 C   0  0  0  0  0  0  0  0  0  0  0  0
   12.9913    6.4652  -15.3958 N   0  0  0  0  0  0  0  0  0  0  0  0
   12.6723    7.6204  -14.7914 C   0  0  0  0  0  0  0  0  0  0  0  0
   11.7894    7.6905  -13.7682 N   0  0  0  0  0  0  0  0  0  0  0  0
   11.1669    6.5934  -13.2847 C   0  0  0  0  0  0  0  0  0  0  0  0
   11.4715    5.3927  -13.8821 C   0  0  0  0  0  0  0  0  0  0  0  0
   12.6647    3.1894  -15.0427 H   0  0  0  0  0  0  0  0  0  0  0  0
   12.9635    4.0891  -16.5482 H   0  0  0  0  0  0  0  0  0  0  0  0
   10.2577    6.7434  -12.2127 N   0  0  0  0  0  0  0  0  0  0  0  0
   10.6586    6.9451  -10.8339 C   0  0  0  0  0  0  0  0  0  0  0  0
    9.7251    6.2702   -9.8638 C   0  0  0  0  0  0  0  0  0  0  0  0
    8.9449    5.1445  -10.4912 C   0  0  0  0  0  0  0  0  0  0  0  0
    8.1495    5.5960  -11.6758 C   0  0  0  0  0  0  0  0  0  0  0  0
    6.8464    6.0767  -11.2537 N   0  0  0  0  0  0  0  0  0  0  0  0
    8.8089    6.7006  -12.4522 C   0  0  0  0  0  0  0  0  0  0  0  0
    6.9383    7.1048  -11.0939 H   0  0  0  0  0  0  0  0  0  0  0  0
    6.1747    5.8935  -12.0442 H   0  0  0  0  0  0  0  0  0  0  0  0
   10.8941    4.2474  -13.4598 O   0  0  0  0  0  0  0  0  0  0  0  0
   10.0615    3.3747  -14.0831 C   0  0  0  0  0  0  0  0  0  0  0  0
   10.5598    2.0933  -14.3547 C   0  0  0  0  0  0  0  0  0  0  0  0
    9.7669    1.1592  -14.9852 C   0  0  0  0  0  0  0  0  0  0  0  0
    8.4880    1.4425  -15.3624 C   0  0  0  0  0  0  0  0  0  0  0  0
    7.9722    2.6934  -15.1081 C   0  0  0  0  0  0  0  0  0  0  0  0
    8.7648    3.6349  -14.4751 C   0  0  0  0  0  0  0  0  0  0  0  0
    7.6781    0.4548  -16.0183 N   0  0  0  0  0  0  0  0  0  0  0  0
    6.4383    0.5756  -16.0176 O   0  0  0  0  0  0  0  0  0  0  0  0
    8.2103   -0.6329  -16.6561 O   0  0  0  0  0  0  0  0  0  0  0  0
  1  2  1  0  0  0
  2  3  2  0  0  0
  3  4  1  0  0  0
  4  5  2  0  0  0
  5  6  1  0  0  0
  6 10  1  0  0  0
 10 11  1  0  0  0
 11 12  1  0  0  0
 12 13  1  0  0  0
 13 14  1  0  0  0
 14 15  1  0  0  0
 14 16  1  0  0  0
  6  7  2  0  0  0
  7 19  1  0  0  0
 19 20  1  0  0  0
 20 21  2  0  0  0
 21 22  1  0  0  0
 22 23  2  0  0  0
 23 26  1  0  0  0
 26 27  2  0  0  0
 26 28  1  0  0  0
 23 24  1  0  0  0
 24 25  2  0  0  0
  7  2  1  0  0  0
 25 20  1  0  0  0
 16 10  1  0  0  0
  1  8  1  0  0  0
  1  9  1  0  0  0
 15 17  1  0  0  0
 15 18  1  0  0  0
M  CHG 1  26   1
M  CHG 1  28  -1
M  END
> <minimizedAffinity>
-6.76797

$$$$
14_0


 28 30  0  0  0  0  0  0  0  0999 V2000
   12.0257    6.5916  -17.9655 N   0  0  0  0  0  0  0  0  0  0  0  0
   12.0612    6.7780  -16.5521 C   0  0  0  0  0  0  0  0  0  0  0  0
   12.9364    7.6815  -16.0444 N   0  0  0  0  0  0  0  0  0  0  0  0
   12.9410    7.8295  -14.7104 C   0  0  0  0  0  0  0  0  0  0  0  0
   12.1239    7.1246  -13.8939 N   0  0  0  0  0  0  0  0  0  0  0  0
   11.2432    6.2188  -14.3724 C   0  0  0  0  0  0  0  0  0  0  0  0
   11.2128    6.0427  -15.7360 C   0  0  0  0  0  0  0  0  0  0  0  0
   11.7679    5.6907  -18.4180 H   0  0  0  0  0  0  0  0  0  0  0  0
   12.2682    7.3901  -18.5828 H   0  0  0  0  0  0  0  0  0  0  0  0
   10.4223    5.5189  -13.4588 N   0  0  0  0  0  0  0  0  0  0  0  0
   10.4147    4.0756  -13.3193 C   0  0  0  0  0  0  0  0  0  0  0  0
    9.0425    3.5401  -13.0062 C   0  0  0  0  0  0  0  0  0  0  0  0
    7.9402    4.4793  -13.4216 C   0  0  0  0  0  0  0  0  0  0  0  0
    8.0759    5.8291  -12.7898 C   0  0  0  0  0  0  0  0  0  0  0  0
    7.4146    5.8490  -11.4976 N   0  0  0  0  0  0  0  0  0  0  0  0
    9.5031    6.2466  -12.5735 C   0  0  0  0  0  0  0  0  0  0  0  0
    8.1330    5.5922  -10.7841 H   0  0  0  0  0  0  0  0  0  0  0  0
    7.0796    6.8341  -11.3333 H   0  0  0  0  0  0  0  0  0  0  0  0
   10.3621    5.1567  -16.2970 O   0  0  0  0  0  0  0  0  0  0  0  0
   10.4901    3.8329  -16.5699 C   0  0  0  0  0  0  0  0  0  0  0  0
    9.3116    3.0828  -16.6820 C   0  0  0  0  0  0  0  0  0  0  0  0
    9.3706    1.7340  -16.9575 C   0  0  0  0  0  0  0  0  0  0  0  0
   10.5593    1.0890  -17.1286 C   0  0  0  0  0  0  0  0  0  0  0  0
   11.7330    1.8010  -17.0242 C   0  0  0  0  0  0  0  0  0  0  0  0
   11.6788    3.1560  -16.7475 C   0  0  0  0  0  0  0  0  0  0  0  0
   10.5990   -0.3174  -17.4152 N   0  0  0  0  0  0  0  0  0  0  0  0
   10.0200   -1.1172  -16.6557 O   0  0  0  0  0  0  0  0  0  0  0  0
   11.2534   -0.8326  -18.5013 O   0  0  0  0  0  0  0  0  0  0  0  0
  1  2  1  0  0  0
  2  3  2  0  0  0
  3  4  1  0  0  0
  4  5  2  0  0  0
  5  6  1  0  0  0
  6 10  1  0  0  0
 10 11  1  0  0  0
 11 12  1  0  0  0
 12 13  1  0  0  0
 13 14  1  0  0  0
 14 15  1  0  0  0
 14 16  1  0  0  0
  6  7  2  0  0  0
  7 19  1  0  0  0
 19 20  1  0  0  0
 20 21  2  0  0  0
 21 22  1  0  0  0
 22 23  2  0  0  0
 23 26  1  0  0  0
 26 27  2  0  0  0
 26 28  1  0  0  0
 23 24  1  0  0  0
 24 25  2  0  0  0
  7  2  1  0  0  0
 25 20  1  0  0  0
 16 10  1  0  0  0
  1  8  1  0  0  0
  1  9  1  0  0  0
 15 17  1  0  0  0
 15 18  1  0  0  0
M  CHG 1  26   1
M  CHG 1  28  -1
M  END
> <minimizedAffinity>
-6.54470

$$$$
14_0


 28 30  0  0  0  0  0  0  0  0999 V2000
   12.0363    7.1504  -14.5116 N   0  0  0  0  0  0  0  0  0  0  0  0
   12.3017    7.5424  -13.1664 C   0  0  0  0  0  0  0  0  0  0  0  0
   13.5483    7.9793  -12.8579 N   0  0  0  0  0  0  0  0  0  0  0  0
   13.7603    8.3395  -11.5825 C   0  0  0  0  0  0  0  0  0  0  0  0
   12.7953    8.2785  -10.6356 N   0  0  0  0  0  0  0  0  0  0  0  0
   11.5458    7.8475  -10.9150 C   0  0  0  0  0  0  0  0  0  0  0  0
   11.2950    7.4705  -12.2136 C   0  0  0  0  0  0  0  0  0  0  0  0
   11.3360    6.4251  -14.7691 H   0  0  0  0  0  0  0  0  0  0  0  0
   12.5642    7.6064  -15.2802 H   0  0  0  0  0  0  0  0  0  0  0  0
   10.5901    7.8097   -9.8742 N   0  0  0  0  0  0  0  0  0  0  0  0
   10.4265    8.8595   -8.8874 C   0  0  0  0  0  0  0  0  0  0  0  0
   10.0522    8.3163   -7.5336 C   0  0  0  0  0  0  0  0  0  0  0  0
   10.4406    6.8716   -7.3561 C   0  0  0  0  0  0  0  0  0  0  0  0
    9.8369    5.9885   -8.4027 C   0  0  0  0  0  0  0  0  0  0  0  0
    8.5209    5.5400   -7.9852 N   0  0  0  0  0  0  0  0  0  0  0  0
    9.6824    6.6628   -9.7366 C   0  0  0  0  0  0  0  0  0  0  0  0
    7.8313    6.2285   -8.3611 H   0  0  0  0  0  0  0  0  0  0  0  0
    8.3602    4.5946   -8.4209 H   0  0  0  0  0  0  0  0  0  0  0  0
   10.0725    7.0273  -12.5779 O   0  0  0  0  0  0  0  0  0  0  0  0
    9.6266    5.7910  -12.9184 C   0  0  0  0  0  0  0  0  0  0  0  0
    8.2441    5.6282  -13.0798 C   0  0  0  0  0  0  0  0  0  0  0  0
    7.7252    4.3992  -13.4248 C   0  0  0  0  0  0  0  0  0  0  0  0
    8.5252    3.3126  -13.6188 C   0  0  0  0  0  0  0  0  0  0  0  0
    9.8873    3.4434  -13.4670 C   0  0  0  0  0  0  0  0  0  0  0  0
   10.4131    4.6759  -13.1206 C   0  0  0  0  0  0  0  0  0  0  0  0
    7.9645    2.0405  -13.9780 N   0  0  0  0  0  0  0  0  0  0  0  0
    8.7037    1.0405  -14.0518 O   0  0  0  0  0  0  0  0  0  0  0  0
    6.6339    1.8687  -14.2483 O   0  0  0  0  0  0  0  0  0  0  0  0
  1  2  1  0  0  0
  2  3  2  0  0  0
  3  4  1  0  0  0
  4  5  2  0  0  0
  5  6  1  0  0  0
  6 10  1  0  0  0
 10 11  1  0  0  0
 11 12  1  0  0  0
 12 13  1  0  0  0
 13 14  1  0  0  0
 14 15  1  0  0  0
 14 16  1  0  0  0
  6  7  2  0  0  0
  7 19  1  0  0  0
 19 20  1  0  0  0
 20 21  2  0  0  0
 21 22  1  0  0  0
 22 23  2  0  0  0
 23 26  1  0  0  0
 26 27  2  0  0  0
 26 28  1  0  0  0
 23 24  1  0  0  0
 24 25  2  0  0  0
  7  2  1  0  0  0
 25 20  1  0  0  0
 16 10  1  0  0  0
  1  8  1  0  0  0
  1  9  1  0  0  0
 15 17  1  0  0  0
 15 18  1  0  0  0
M  CHG 1  26   1
M  CHG 1  28  -1
M  END
> <minimizedAffinity>
-6.52343

$$$$
14_0


 28 30  0  0  0  0  0  0  0  0999 V2000
   12.9425    7.3671  -14.9435 N   0  0  0  0  0  0  0  0  0  0  0  0
   12.6149    7.5360  -13.5659 C   0  0  0  0  0  0  0  0  0  0  0  0
   13.5186    8.1479  -12.7604 N   0  0  0  0  0  0  0  0  0  0  0  0
   13.1753    8.2890  -11.4705 C   0  0  0  0  0  0  0  0  0  0  0  0
   11.9940    7.8512  -10.9764 N   0  0  0  0  0  0  0  0  0  0  0  0
   11.0761    7.2387  -11.7557 C   0  0  0  0  0  0  0  0  0  0  0  0
   11.3967    7.0782  -13.0834 C   0  0  0  0  0  0  0  0  0  0  0  0
   12.5887    6.5790  -15.5237 H   0  0  0  0  0  0  0  0  0  0  0  0
   13.5655    8.0608  -15.3995 H   0  0  0  0  0  0  0  0  0  0  0  0
    9.8645    6.8069  -11.1694 N   0  0  0  0  0  0  0  0  0  0  0  0
    9.7860    5.8329  -10.0981 C   0  0  0  0  0  0  0  0  0  0  0  0
    8.5680    4.9549  -10.2135 C   0  0  0  0  0  0  0  0  0  0  0  0
    8.0182    4.9001  -11.6151 C   0  0  0  0  0  0  0  0  0  0  0  0
    7.6740    6.2573  -12.1436 C   0  0  0  0  0  0  0  0  0  0  0  0
    6.3153    6.6115  -11.7749 N   0  0  0  0  0  0  0  0  0  0  0  0
    8.5783    7.3437  -11.6340 C   0  0  0  0  0  0  0  0  0  0  0  0
    6.3706    7.1272  -10.8683 H   0  0  0  0  0  0  0  0  0  0  0  0
    5.9426    7.2462  -12.5284 H   0  0  0  0  0  0  0  0  0  0  0  0
   10.5357    6.4759  -13.9317 O   0  0  0  0  0  0  0  0  0  0  0  0
   10.3598    5.1707  -14.2612 C   0  0  0  0  0  0  0  0  0  0  0  0
   11.2223    4.2369  -13.6711 C   0  0  0  0  0  0  0  0  0  0  0  0
   11.0981    2.8958  -13.9625 C   0  0  0  0  0  0  0  0  0  0  0  0
   10.1463    2.4347  -14.8226 C   0  0  0  0  0  0  0  0  0  0  0  0
    9.2852    3.3296  -15.4169 C   0  0  0  0  0  0  0  0  0  0  0  0
    9.4061    4.6775  -15.1272 C   0  0  0  0  0  0  0  0  0  0  0  0
   10.0335    1.0330  -15.1129 N   0  0  0  0  0  0  0  0  0  0  0  0
   10.6157    0.5615  -16.1082 O   0  0  0  0  0  0  0  0  0  0  0  0
    9.3049    0.1733  -14.3363 O   0  0  0  0  0  0  0  0  0  0  0  0
  1  2  1  0  0  0
  2  3  2  0  0  0
  3  4  1  0  0  0
  4  5  2  0  0  0
  5  6  1  0  0  0
  6 10  1  0  0  0
 10 11  1  0  0  0
 11 12  1  0  0  0
 12 13  1  0  0  0
 13 14  1  0  0  0
 14 15  1  0  0  0
 14 16  1  0  0  0
  6  7  2  0  0  0
  7 19  1  0  0  0
 19 20  1  0  0  0
 20 21  2  0  0  0
 21 22  1  0  0  0
 22 23  2  0  0  0
 23 26  1  0  0  0
 26 27  2  0  0  0
 26 28  1  0  0  0
 23 24  1  0  0  0
 24 25  2  0  0  0
  7  2  1  0  0  0
 25 20  1  0  0  0
 16 10  1  0  0  0
  1  8  1  0  0  0
  1  9  1  0  0  0
 15 17  1  0  0  0
 15 18  1  0  0  0
M  CHG 1  26   1
M  CHG 1  28  -1
M  END
> <minimizedAffinity>
-6.25479

$$$$
14_0


 28 30  0  0  0  0  0  0  0  0999 V2000
   12.7703    7.3084  -13.5964 N   0  0  0  0  0  0  0  0  0  0  0  0
   11.6571    6.9714  -12.7713 C   0  0  0  0  0  0  0  0  0  0  0  0
   11.7537    7.1973  -11.4373 N   0  0  0  0  0  0  0  0  0  0  0  0
   10.6864    6.8676  -10.6931 C   0  0  0  0  0  0  0  0  0  0  0  0
    9.5611    6.3359  -11.2243 N   0  0  0  0  0  0  0  0  0  0  0  0
    9.4379    6.1003  -12.5488 C   0  0  0  0  0  0  0  0  0  0  0  0
   10.5141    6.4271  -13.3403 C   0  0  0  0  0  0  0  0  0  0  0  0
   13.0001    6.8091  -14.4800 H   0  0  0  0  0  0  0  0  0  0  0  0
   13.3890    8.0906  -13.3088 H   0  0  0  0  0  0  0  0  0  0  0  0
    8.2326    5.5414  -13.0317 N   0  0  0  0  0  0  0  0  0  0  0  0
    6.9346    6.1721  -12.8906 C   0  0  0  0  0  0  0  0  0  0  0  0
    5.8325    5.1679  -12.6788 C   0  0  0  0  0  0  0  0  0  0  0  0
    6.3352    3.8541  -12.1395 C   0  0  0  0  0  0  0  0  0  0  0  0
    7.3730    3.2370  -13.0237 C   0  0  0  0  0  0  0  0  0  0  0  0
    6.7433    2.4172  -14.0428 N   0  0  0  0  0  0  0  0  0  0  0  0
    8.2365    4.2465  -13.7257 C   0  0  0  0  0  0  0  0  0  0  0  0
    6.5923    3.0294  -14.8755 H   0  0  0  0  0  0  0  0  0  0  0  0
    7.4170    1.6435  -14.2818 H   0  0  0  0  0  0  0  0  0  0  0  0
   10.4743    6.2238  -14.6747 O   0  0  0  0  0  0  0  0  0  0  0  0
   10.7460    5.1273  -15.4278 C   0  0  0  0  0  0  0  0  0  0  0  0
   10.0901    5.0162  -16.6613 C   0  0  0  0  0  0  0  0  0  0  0  0
   10.3206    3.9281  -17.4747 C   0  0  0  0  0  0  0  0  0  0  0  0
   11.1819    2.9345  -17.1153 C   0  0  0  0  0  0  0  0  0  0  0  0
   11.8402    3.0175  -15.9090 C   0  0  0  0  0  0  0  0  0  0  0  0
   11.6118    4.1085  -15.0886 C   0  0  0  0  0  0  0  0  0  0  0  0
   11.4081    1.8089  -17.9775 N   0  0  0  0  0  0  0  0  0  0  0  0
   12.5294    1.6450  -18.4949 O   0  0  0  0  0  0  0  0  0  0  0  0
   10.4353    0.8900  -18.2646 O   0  0  0  0  0  0  0  0  0  0  0  0
  1  2  1  0  0  0
  2  3  2  0  0  0
  3  4  1  0  0  0
  4  5  2  0  0  0
  5  6  1  0  0  0
  6 10  1  0  0  0
 10 11  1  0  0  0
 11 12  1  0  0  0
 12 13  1  0  0  0
 13 14  1  0  0  0
 14 15  1  0  0  0
 14 16  1  0  0  0
  6  7  2  0  0  0
  7 19  1  0  0  0
 19 20  1  0  0  0
 20 21  2  0  0  0
 21 22  1  0  0  0
 22 23  2  0  0  0
 23 26  1  0  0  0
 26 27  2  0  0  0
 26 28  1  0  0  0
 23 24  1  0  0  0
 24 25  2  0  0  0
  7  2  1  0  0  0
 25 20  1  0  0  0
 16 10  1  0  0  0
  1  8  1  0  0  0
  1  9  1  0  0  0
 15 17  1  0  0  0
 15 18  1  0  0  0
M  CHG 1  26   1
M  CHG 1  28  -1
M  END
> <minimizedAffinity>
-5.28745

$$$$
