14_1


 26 29  0  0  0  0  0  0  0  0999 V2000
   13.3397    7.7449  -13.5602 H   0  0  0  0  0  0  0  0  0  0  0  0
   12.9132    7.7162  -12.6250 N   0  0  0  0  0  0  0  0  0  0  0  0
   11.7978    7.1255  -12.3573 C   0  0  0  0  0  0  0  0  0  0  0  0
   11.0972    6.4877  -13.3160 N   0  0  0  0  0  0  0  0  0  0  0  0
    9.9365    5.8726  -13.0393 C   0  0  0  0  0  0  0  0  0  0  0  0
    9.2191    5.2189  -14.0237 C   0  0  0  0  0  0  0  0  0  0  0  0
    8.0290    4.6010  -13.6860 C   0  0  0  0  0  0  0  0  0  0  0  0
    7.5769    4.6456  -12.3779 C   0  0  0  0  0  0  0  0  0  0  0  0
    6.0625    3.8705  -11.9003 Cl  0  0  0  0  0  0  0  0  0  0  0  0
    8.2751    5.2914  -11.3787 C   0  0  0  0  0  0  0  0  0  0  0  0
    9.4636    5.9070  -11.7225 C   0  0  0  0  0  0  0  0  0  0  0  0
   10.2139    6.5714  -10.7743 C   0  0  0  0  0  0  0  0  0  0  0  0
    9.9568    6.7314   -9.4612 N   0  0  0  0  0  0  0  0  0  0  0  0
    9.1351    6.3814   -8.9045 H   0  0  0  0  0  0  0  0  0  0  0  0
   10.9844    7.4509   -8.9673 C   0  0  0  0  0  0  0  0  0  0  0  0
   11.8540    7.7254   -9.9622 N   0  0  0  0  0  0  0  0  0  0  0  0
   11.3755    7.1824  -11.0709 N   0  0  0  0  0  0  0  0  0  0  0  0
   11.1667    7.8882   -7.5716 C   0  0  0  0  0  0  0  0  0  0  0  0
   11.0000    7.0066   -6.5191 C   0  0  0  0  0  0  0  0  0  0  0  0
   11.1661    7.3964   -5.2067 C   0  0  0  0  0  0  0  0  0  0  0  0
   11.5109    8.7241   -4.9861 C   0  0  0  0  0  0  0  0  0  0  0  0
   11.6806    9.6150   -6.0247 C   0  0  0  0  0  0  0  0  0  0  0  0
   11.5127    9.2188   -7.3421 C   0  0  0  0  0  0  0  0  0  0  0  0
   11.6989    9.1890   -3.6149 C   0  0  0  0  0  0  0  0  0  0  0  0
   11.3008   10.3627   -3.3617 O   0  0  0  0  0  0  0  0  0  0  0  0
   12.2851    8.3679   -2.6607 O   0  0  0  0  0  0  0  0  0  0  0  0
  1  2  1  0  0  0
  2  3  2  0  0  0
  3  4  1  0  0  0
  4  5  2  0  0  0
  5  6  1  0  0  0
  6  7  2  0  0  0
  7  8  1  0  0  0
  8  9  1  0  0  0
  8 10  2  0  0  0
 10 11  1  0  0  0
 11 12  2  0  0  0
 12 13  1  0  0  0
 13 14  1  0  0  0
 13 15  1  0  0  0
 15 18  1  0  0  0
 18 19  2  0  0  0
 19 20  1  0  0  0
 20 21  2  0  0  0
 21 24  1  0  0  0
 24 25  2  0  0  0
 24 26  1  0  0  0
 21 22  1  0  0  0
 22 23  2  0  0  0
 15 16  2  0  0  0
 16 17  1  0  0  0
 17  3  1  0  0  0
 11  5  1  0  0  0
 17 12  1  0  0  0
 23 18  1  0  0  0
M  CHG 1  26  -1
M  END
> <minimizedAffinity>
-10.66691

$$$$
14_1


 26 29  0  0  0  0  0  0  0  0999 V2000
    6.5681    4.0581  -11.8291 H   0  0  0  0  0  0  0  0  0  0  0  0
    7.2846    4.6347  -11.3693 N   0  0  0  0  0  0  0  0  0  0  0  0
    8.3407    5.0821  -11.9603 C   0  0  0  0  0  0  0  0  0  0  0  0
    8.5809    4.8145  -13.2593 N   0  0  0  0  0  0  0  0  0  0  0  0
    9.6792    5.2791  -13.8758 C   0  0  0  0  0  0  0  0  0  0  0  0
    9.9241    5.0037  -15.2081 C   0  0  0  0  0  0  0  0  0  0  0  0
   11.0705    5.5064  -15.7957 C   0  0  0  0  0  0  0  0  0  0  0  0
   11.9490    6.2719  -15.0475 C   0  0  0  0  0  0  0  0  0  0  0  0
   13.4257    6.9350  -15.7559 Cl  0  0  0  0  0  0  0  0  0  0  0  0
   11.7260    6.5600  -13.7170 C   0  0  0  0  0  0  0  0  0  0  0  0
   10.5787    6.0548  -13.1354 C   0  0  0  0  0  0  0  0  0  0  0  0
   10.2920    6.3032  -11.8090 C   0  0  0  0  0  0  0  0  0  0  0  0
   11.0053    7.0157  -10.9149 N   0  0  0  0  0  0  0  0  0  0  0  0
   11.9183    7.5203  -11.0543 H   0  0  0  0  0  0  0  0  0  0  0  0
   10.3105    6.9641   -9.7608 C   0  0  0  0  0  0  0  0  0  0  0  0
    9.1919    6.2325   -9.9474 N   0  0  0  0  0  0  0  0  0  0  0  0
    9.1855    5.8286  -11.2082 N   0  0  0  0  0  0  0  0  0  0  0  0
   10.6784    7.5919   -8.4790 C   0  0  0  0  0  0  0  0  0  0  0  0
   10.8238    6.8369   -7.3295 C   0  0  0  0  0  0  0  0  0  0  0  0
   11.1675    7.4055   -6.1209 C   0  0  0  0  0  0  0  0  0  0  0  0
   11.3627    8.7811   -6.1085 C   0  0  0  0  0  0  0  0  0  0  0  0
   11.2214    9.5474   -7.2460 C   0  0  0  0  0  0  0  0  0  0  0  0
   10.8759    8.9716   -8.4584 C   0  0  0  0  0  0  0  0  0  0  0  0
   11.7279    9.4336   -4.8545 C   0  0  0  0  0  0  0  0  0  0  0  0
   12.9027    9.2234   -4.4349 O   0  0  0  0  0  0  0  0  0  0  0  0
   10.8171   10.2356   -4.1796 O   0  0  0  0  0  0  0  0  0  0  0  0
  1  2  1  0  0  0
  2  3  2  0  0  0
  3  4  1  0  0  0
  4  5  2  0  0  0
  5  6  1  0  0  0
  6  7  2  0  0  0
  7  8  1  0  0  0
  8  9  1  0  0  0
  8 10  2  0  0  0
 10 11  1  0  0  0
 11 12  2  0  0  0
 12 13  1  0  0  0
 13 14  1  0  0  0
 13 15  1  0  0  0
 15 18  1  0  0  0
 18 19  2  0  0  0
 19 20  1  0  0  0
 20 21  2  0  0  0
 21 24  1  0  0  0
 24 25  2  0  0  0
 24 26  1  0  0  0
 21 22  1  0  0  0
 22 23  2  0  0  0
 15 16  2  0  0  0
 16 17  1  0  0  0
 17  3  1  0  0  0
 11  5  1  0  0  0
 17 12  1  0  0  0
 23 18  1  0  0  0
M  CHG 1  26  -1
M  END
> <minimizedAffinity>
-9.80439

$$$$
14_1


 26 29  0  0  0  0  0  0  0  0999 V2000
    8.6787    6.4586   -9.3411 H   0  0  0  0  0  0  0  0  0  0  0  0
    8.4079    5.8327  -10.1107 N   0  0  0  0  0  0  0  0  0  0  0  0
    9.0246    5.7701  -11.2422 C   0  0  0  0  0  0  0  0  0  0  0  0
   10.0975    6.5453  -11.4972 N   0  0  0  0  0  0  0  0  0  0  0  0
   10.7404    6.4816  -12.6739 C   0  0  0  0  0  0  0  0  0  0  0  0
   11.8405    7.2773  -12.9338 C   0  0  0  0  0  0  0  0  0  0  0  0
   12.4669    7.1729  -14.1622 C   0  0  0  0  0  0  0  0  0  0  0  0
   11.9872    6.2804  -15.1061 C   0  0  0  0  0  0  0  0  0  0  0  0
   12.7552    6.1129  -16.6886 Cl  0  0  0  0  0  0  0  0  0  0  0  0
   10.8916    5.4762  -14.8698 C   0  0  0  0  0  0  0  0  0  0  0  0
   10.2699    5.5852  -13.6404 C   0  0  0  0  0  0  0  0  0  0  0  0
    9.1689    4.8118  -13.3357 C   0  0  0  0  0  0  0  0  0  0  0  0
    8.5500    3.8928  -14.1027 N   0  0  0  0  0  0  0  0  0  0  0  0
    8.7857    3.5869  -15.0818 H   0  0  0  0  0  0  0  0  0  0  0  0
    7.5314    3.4152  -13.3599 C   0  0  0  0  0  0  0  0  0  0  0  0
    7.5287    4.0323  -12.1596 N   0  0  0  0  0  0  0  0  0  0  0  0
    8.5374    4.8899  -12.1501 N   0  0  0  0  0  0  0  0  0  0  0  0
    6.5551    2.3850  -13.7572 C   0  0  0  0  0  0  0  0  0  0  0  0
    6.7104    1.6679  -14.9295 C   0  0  0  0  0  0  0  0  0  0  0  0
    5.8080    0.7001  -15.3186 C   0  0  0  0  0  0  0  0  0  0  0  0
    4.7274    0.4753  -14.4747 C   0  0  0  0  0  0  0  0  0  0  0  0
    4.5588    1.1820  -13.3028 C   0  0  0  0  0  0  0  0  0  0  0  0
    5.4682    2.1536  -12.9158 C   0  0  0  0  0  0  0  0  0  0  0  0
    3.7423   -0.5385  -14.8397 C   0  0  0  0  0  0  0  0  0  0  0  0
    3.1538   -1.1185  -13.8818 O   0  0  0  0  0  0  0  0  0  0  0  0
    3.4845   -0.8310  -16.1725 O   0  0  0  0  0  0  0  0  0  0  0  0
  1  2  1  0  0  0
  2  3  2  0  0  0
  3  4  1  0  0  0
  4  5  2  0  0  0
  5  6  1  0  0  0
  6  7  2  0  0  0
  7  8  1  0  0  0
  8  9  1  0  0  0
  8 10  2  0  0  0
 10 11  1  0  0  0
 11 12  2  0  0  0
 12 13  1  0  0  0
 13 14  1  0  0  0
 13 15  1  0  0  0
 15 18  1  0  0  0
 18 19  2  0  0  0
 19 20  1  0  0  0
 20 21  2  0  0  0
 21 24  1  0  0  0
 24 25  2  0  0  0
 24 26  1  0  0  0
 21 22  1  0  0  0
 22 23  2  0  0  0
 15 16  2  0  0  0
 16 17  1  0  0  0
 17  3  1  0  0  0
 11  5  1  0  0  0
 17 12  1  0  0  0
 23 18  1  0  0  0
M  CHG 1  26  -1
M  END
> <minimizedAffinity>
-9.29825

$$$$
14_1


 26 29  0  0  0  0  0  0  0  0999 V2000
    7.2331    4.1632  -10.2501 H   0  0  0  0  0  0  0  0  0  0  0  0
    7.9839    4.6455  -10.7608 N   0  0  0  0  0  0  0  0  0  0  0  0
    8.8247    5.4568  -10.2133 C   0  0  0  0  0  0  0  0  0  0  0  0
    8.7717    5.7335   -8.8952 N   0  0  0  0  0  0  0  0  0  0  0  0
    9.6455    6.5774   -8.3238 C   0  0  0  0  0  0  0  0  0  0  0  0
    9.5898    6.8602   -6.9718 C   0  0  0  0  0  0  0  0  0  0  0  0
   10.5136    7.7366   -6.4327 C   0  0  0  0  0  0  0  0  0  0  0  0
   11.4730    8.3133   -7.2479 C   0  0  0  0  0  0  0  0  0  0  0  0
   12.6734    9.4383   -6.6033 Cl  0  0  0  0  0  0  0  0  0  0  0  0
   11.5485    8.0465   -8.5993 C   0  0  0  0  0  0  0  0  0  0  0  0
   10.6225    7.1699   -9.1321 C   0  0  0  0  0  0  0  0  0  0  0  0
   10.6388    6.8573  -10.4757 C   0  0  0  0  0  0  0  0  0  0  0  0
   11.4780    7.3029  -11.4313 N   0  0  0  0  0  0  0  0  0  0  0  0
   12.2827    7.9748  -11.3388 H   0  0  0  0  0  0  0  0  0  0  0  0
   11.0854    6.7085  -12.5759 C   0  0  0  0  0  0  0  0  0  0  0  0
   10.0245    5.9135  -12.3231 N   0  0  0  0  0  0  0  0  0  0  0  0
    9.7541    6.0088  -11.0305 N   0  0  0  0  0  0  0  0  0  0  0  0
   11.6904    6.8733  -13.9098 C   0  0  0  0  0  0  0  0  0  0  0  0
   12.5174    7.9453  -14.1918 C   0  0  0  0  0  0  0  0  0  0  0  0
   13.0928    8.1170  -15.4333 C   0  0  0  0  0  0  0  0  0  0  0  0
   12.8030    7.1583  -16.3963 C   0  0  0  0  0  0  0  0  0  0  0  0
   11.9804    6.0841  -16.1307 C   0  0  0  0  0  0  0  0  0  0  0  0
   11.4044    5.9156  -14.8814 C   0  0  0  0  0  0  0  0  0  0  0  0
   13.3865    7.2927  -17.7279 C   0  0  0  0  0  0  0  0  0  0  0  0
   12.8497    6.6084  -18.6466 O   0  0  0  0  0  0  0  0  0  0  0  0
   14.4707    8.1323  -17.9468 O   0  0  0  0  0  0  0  0  0  0  0  0
  1  2  1  0  0  0
  2  3  2  0  0  0
  3  4  1  0  0  0
  4  5  2  0  0  0
  5  6  1  0  0  0
  6  7  2  0  0  0
  7  8  1  0  0  0
  8  9  1  0  0  0
  8 10  2  0  0  0
 10 11  1  0  0  0
 11 12  2  0  0  0
 12 13  1  0  0  0
 13 14  1  0  0  0
 13 15  1  0  0  0
 15 18  1  0  0  0
 18 19  2  0  0  0
 19 20  1  0  0  0
 20 21  2  0  0  0
 21 24  1  0  0  0
 24 25  2  0  0  0
 24 26  1  0  0  0
 21 22  1  0  0  0
 22 23  2  0  0  0
 15 16  2  0  0  0
 16 17  1  0  0  0
 17  3  1  0  0  0
 11  5  1  0  0  0
 17 12  1  0  0  0
 23 18  1  0  0  0
M  CHG 1  26  -1
M  END
> <minimizedAffinity>
-8.48473

$$$$
14_1


 26 29  0  0  0  0  0  0  0  0999 V2000
    5.5957    5.7369  -10.8996 H   0  0  0  0  0  0  0  0  0  0  0  0
    5.8436    5.0539  -11.6272 N   0  0  0  0  0  0  0  0  0  0  0  0
    6.9659    5.0514  -12.2636 C   0  0  0  0  0  0  0  0  0  0  0  0
    7.9162    5.9725  -12.0081 N   0  0  0  0  0  0  0  0  0  0  0  0
    9.0845    5.9715  -12.6693 C   0  0  0  0  0  0  0  0  0  0  0  0
   10.0580    6.9170  -12.4062 C   0  0  0  0  0  0  0  0  0  0  0  0
   11.2442    6.8716  -13.1155 C   0  0  0  0  0  0  0  0  0  0  0  0
   11.4380    5.8882  -14.0710 C   0  0  0  0  0  0  0  0  0  0  0  0
   12.9370    5.7913  -15.0015 Cl  0  0  0  0  0  0  0  0  0  0  0  0
   10.4815    4.9344  -14.3510 C   0  0  0  0  0  0  0  0  0  0  0  0
    9.2983    4.9850  -13.6388 C   0  0  0  0  0  0  0  0  0  0  0  0
    8.2978    4.0628  -13.8668 C   0  0  0  0  0  0  0  0  0  0  0  0
    8.2843    3.0375  -14.7411 N   0  0  0  0  0  0  0  0  0  0  0  0
    9.0329    2.7413  -15.4190 H   0  0  0  0  0  0  0  0  0  0  0  0
    7.0892    2.4334  -14.5854 C   0  0  0  0  0  0  0  0  0  0  0  0
    6.3852    3.0791  -13.6320 N   0  0  0  0  0  0  0  0  0  0  0  0
    7.1329    4.0800  -13.1937 N   0  0  0  0  0  0  0  0  0  0  0  0
    6.5924    1.2550  -15.3183 C   0  0  0  0  0  0  0  0  0  0  0  0
    6.1109    0.1464  -14.6463 C   0  0  0  0  0  0  0  0  0  0  0  0
    5.6418   -0.9656  -15.3139 C   0  0  0  0  0  0  0  0  0  0  0  0
    5.6745   -0.9230  -16.7023 C   0  0  0  0  0  0  0  0  0  0  0  0
    6.1516    0.1748  -17.3866 C   0  0  0  0  0  0  0  0  0  0  0  0
    6.6219    1.2900  -16.7114 C   0  0  0  0  0  0  0  0  0  0  0  0
    5.1896   -2.0743  -17.4580 C   0  0  0  0  0  0  0  0  0  0  0  0
    4.0929   -1.9215  -18.0697 O   0  0  0  0  0  0  0  0  0  0  0  0
    5.9118   -3.2600  -17.4872 O   0  0  0  0  0  0  0  0  0  0  0  0
  1  2  1  0  0  0
  2  3  2  0  0  0
  3  4  1  0  0  0
  4  5  2  0  0  0
  5  6  1  0  0  0
  6  7  2  0  0  0
  7  8  1  0  0  0
  8  9  1  0  0  0
  8 10  2  0  0  0
 10 11  1  0  0  0
 11 12  2  0  0  0
 12 13  1  0  0  0
 13 14  1  0  0  0
 13 15  1  0  0  0
 15 18  1  0  0  0
 18 19  2  0  0  0
 19 20  1  0  0  0
 20 21  2  0  0  0
 21 24  1  0  0  0
 24 25  2  0  0  0
 24 26  1  0  0  0
 21 22  1  0  0  0
 22 23  2  0  0  0
 15 16  2  0  0  0
 16 17  1  0  0  0
 17  3  1  0  0  0
 11  5  1  0  0  0
 17 12  1  0  0  0
 23 18  1  0  0  0
M  CHG 1  26  -1
M  END
> <minimizedAffinity>
-8.23383

$$$$
14_1


 26 29  0  0  0  0  0  0  0  0999 V2000
    5.9855    4.7298  -11.0236 H   0  0  0  0  0  0  0  0  0  0  0  0
    6.7135    4.3894  -11.6650 N   0  0  0  0  0  0  0  0  0  0  0  0
    7.8806    4.9265  -11.7837 C   0  0  0  0  0  0  0  0  0  0  0  0
    8.2324    6.0023  -11.0518 N   0  0  0  0  0  0  0  0  0  0  0  0
    9.4462    6.5625  -11.1740 C   0  0  0  0  0  0  0  0  0  0  0  0
    9.8055    7.6660  -10.4228 C   0  0  0  0  0  0  0  0  0  0  0  0
   11.0683    8.2049  -10.5867 C   0  0  0  0  0  0  0  0  0  0  0  0
   11.9474    7.6364  -11.4932 C   0  0  0  0  0  0  0  0  0  0  0  0
   13.5706    8.2908  -11.7360 Cl  0  0  0  0  0  0  0  0  0  0  0  0
   11.6116    6.5355  -12.2537 C   0  0  0  0  0  0  0  0  0  0  0  0
   10.3482    6.0015  -12.0854 C   0  0  0  0  0  0  0  0  0  0  0  0
    9.9450    4.9009  -12.8129 C   0  0  0  0  0  0  0  0  0  0  0  0
   10.6375    4.2045  -13.7356 N   0  0  0  0  0  0  0  0  0  0  0  0
   11.6190    4.3647  -14.0803 H   0  0  0  0  0  0  0  0  0  0  0  0
    9.8130    3.2244  -14.1561 C   0  0  0  0  0  0  0  0  0  0  0  0
    8.6369    3.3208  -13.5011 N   0  0  0  0  0  0  0  0  0  0  0  0
    8.7235    4.3532  -12.6766 N   0  0  0  0  0  0  0  0  0  0  0  0
   10.1093    2.1932  -15.1667 C   0  0  0  0  0  0  0  0  0  0  0  0
    9.5535    0.9296  -15.0824 C   0  0  0  0  0  0  0  0  0  0  0  0
    9.8184   -0.0486  -16.0178 C   0  0  0  0  0  0  0  0  0  0  0  0
   10.6749    0.2934  -17.0569 C   0  0  0  0  0  0  0  0  0  0  0  0
   11.2369    1.5487  -17.1547 C   0  0  0  0  0  0  0  0  0  0  0  0
   10.9678    2.5287  -16.2124 C   0  0  0  0  0  0  0  0  0  0  0  0
   10.9888   -0.7056  -18.0744 C   0  0  0  0  0  0  0  0  0  0  0  0
   10.1059   -1.5866  -18.2856 O   0  0  0  0  0  0  0  0  0  0  0  0
   12.1970   -0.6679  -18.7578 O   0  0  0  0  0  0  0  0  0  0  0  0
  1  2  1  0  0  0
  2  3  2  0  0  0
  3  4  1  0  0  0
  4  5  2  0  0  0
  5  6  1  0  0  0
  6  7  2  0  0  0
  7  8  1  0  0  0
  8  9  1  0  0  0
  8 10  2  0  0  0
 10 11  1  0  0  0
 11 12  2  0  0  0
 12 13  1  0  0  0
 13 14  1  0  0  0
 13 15  1  0  0  0
 15 18  1  0  0  0
 18 19  2  0  0  0
 19 20  1  0  0  0
 20 21  2  0  0  0
 21 24  1  0  0  0
 24 25  2  0  0  0
 24 26  1  0  0  0
 21 22  1  0  0  0
 22 23  2  0  0  0
 15 16  2  0  0  0
 16 17  1  0  0  0
 17  3  1  0  0  0
 11  5  1  0  0  0
 17 12  1  0  0  0
 23 18  1  0  0  0
M  CHG 1  26  -1
M  END
> <minimizedAffinity>
-8.10032

$$$$
