17_1


 33 36  0  0  0  0  0  0  0  0999 V2000
   10.6696    6.1170  -13.3156 C   0  0  0  0  0  0  0  0  0  0  0  0
   11.0678    6.1084  -14.6215 N   0  0  0  0  0  0  0  0  0  0  0  0
   12.1462    6.8249  -14.9793 C   0  0  0  0  0  0  0  0  0  0  0  0
   12.8501    7.5528  -14.0942 N   0  0  0  0  0  0  0  0  0  0  0  0
   12.5051    7.6007  -12.7894 C   0  0  0  0  0  0  0  0  0  0  0  0
   13.2047    8.3378  -11.8599 C   0  0  0  0  0  0  0  0  0  0  0  0
   12.7670    8.3117  -10.5867 N   0  0  0  0  0  0  0  0  0  0  0  0
   11.6982    7.6168  -10.1692 C   0  0  0  0  0  0  0  0  0  0  0  0
   11.0064    6.8844  -11.1031 C   0  0  0  0  0  0  0  0  0  0  0  0
   11.3877    6.8575  -12.4222 C   0  0  0  0  0  0  0  0  0  0  0  0
    5.0029    4.3336  -12.0902 H   0  0  0  0  0  0  0  0  0  0  0  0
    4.9790    3.4845  -12.6794 O   0  0  0  0  0  0  0  0  0  0  0  0
    6.2326    2.8853  -12.9523 C   0  0  0  0  0  0  0  0  0  0  0  0
    7.2691    3.6324  -13.0676 N   0  0  0  0  0  0  0  0  0  0  0  0
    8.6205    3.1977  -13.3377 C   0  0  0  0  0  0  0  0  0  0  0  0
    9.5777    4.0147  -12.4162 C   0  0  0  0  0  0  0  0  0  0  0  0
    9.5311    5.3351  -13.0108 N   0  0  0  0  0  0  0  0  0  0  0  0
    8.2328    5.9011  -13.3303 C   0  0  0  0  0  0  0  0  0  0  0  0
    8.1338    7.1811  -12.5258 C   0  0  0  0  0  0  0  0  0  0  0  0
    7.0698    5.0624  -12.9203 C   0  0  0  0  0  0  0  0  0  0  0  0
    6.4256    1.5351  -13.1075 O   0  0  0  0  0  0  0  0  0  0  0  0
    5.7984    0.7916  -14.0874 C   0  0  0  0  0  0  0  0  0  0  0  0
    6.1511    1.2161  -15.5073 C   0  0  0  0  0  0  0  0  0  0  0  0
    6.5295   -0.5953  -14.0017 C   0  0  0  0  0  0  0  0  0  0  0  0
    4.3680    0.4662  -13.9732 C   0  0  0  0  0  0  0  0  0  0  0  0
   11.3420    7.6834   -8.7605 C   0  0  0  0  0  0  0  0  0  0  0  0
   10.2952    6.9041   -8.3155 C   0  0  0  0  0  0  0  0  0  0  0  0
    9.8768    6.8937   -6.9976 C   0  0  0  0  0  0  0  0  0  0  0  0
   10.5232    7.6935   -6.0670 C   0  0  0  0  0  0  0  0  0  0  0  0
   11.5795    8.4789   -6.5196 C   0  0  0  0  0  0  0  0  0  0  0  0
   11.9802    8.4735   -7.8395 C   0  0  0  0  0  0  0  0  0  0  0  0
   12.2357    9.2816   -5.6084 O   0  0  0  0  0  0  0  0  0  0  0  0
   12.1223    8.9990   -4.2124 C   0  0  0  0  0  0  0  0  0  0  0  0
 11 12  1  0  0  0
 12 13  1  0  0  0
 13 21  1  0  0  0
 21 22  1  0  0  0
 22 23  1  0  0  0
 22 24  1  0  0  0
 22 25  1  0  0  0
 13 14  2  0  0  0
 14 15  1  0  0  0
 15 16  1  0  0  0
 16 17  1  0  0  0
 17  1  1  0  0  0
  1  2  2  0  0  0
  2  3  1  0  0  0
  3  4  2  0  0  0
  4  5  1  0  0  0
  5  6  2  0  0  0
  6  7  1  0  0  0
  7  8  2  0  0  0
  8 26  1  0  0  0
 26 27  2  0  0  0
 27 28  1  0  0  0
 28 29  2  0  0  0
 29 30  1  0  0  0
 30 32  1  0  0  0
 32 33  1  0  0  0
 30 31  2  0  0  0
  8  9  1  0  0  0
  9 10  2  0  0  0
 17 18  1  0  0  0
 18 19  1  0  0  0
 18 20  1  0  0  0
 20 14  1  0  0  0
 10  1  1  0  0  0
 10  5  1  0  0  0
 31 26  1  0  0  0
M  CHG 1  14   1
M  END
> <minimizedAffinity>
-9.41668

$$$$
17_1


 33 36  0  0  0  0  0  0  0  0999 V2000
    8.0300    3.3896  -13.5360 C   0  0  0  0  0  0  0  0  0  0  0  0
    7.4927    4.1908  -12.5698 N   0  0  0  0  0  0  0  0  0  0  0  0
    8.0755    5.3711  -12.3027 C   0  0  0  0  0  0  0  0  0  0  0  0
    9.1730    5.7935  -12.9551 N   0  0  0  0  0  0  0  0  0  0  0  0
    9.7499    5.0455  -13.9203 C   0  0  0  0  0  0  0  0  0  0  0  0
   10.8745    5.4500  -14.6046 C   0  0  0  0  0  0  0  0  0  0  0  0
   11.3631    4.6201  -15.5458 N   0  0  0  0  0  0  0  0  0  0  0  0
   10.8263    3.4307  -15.8568 C   0  0  0  0  0  0  0  0  0  0  0  0
    9.7047    3.0354  -15.1692 C   0  0  0  0  0  0  0  0  0  0  0  0
    9.1438    3.8235  -14.1945 C   0  0  0  0  0  0  0  0  0  0  0  0
    3.8873   -1.0398  -13.6373 H   0  0  0  0  0  0  0  0  0  0  0  0
    4.0017   -1.3338  -14.6218 O   0  0  0  0  0  0  0  0  0  0  0  0
    5.2624   -1.0615  -15.2062 C   0  0  0  0  0  0  0  0  0  0  0  0
    5.9035   -0.0107  -14.8450 N   0  0  0  0  0  0  0  0  0  0  0  0
    7.1958    0.4202  -15.3272 C   0  0  0  0  0  0  0  0  0  0  0  0
    8.0204    0.9195  -14.1010 C   0  0  0  0  0  0  0  0  0  0  0  0
    7.3605    2.1657  -13.7679 N   0  0  0  0  0  0  0  0  0  0  0  0
    5.9116    2.1738  -13.6734 C   0  0  0  0  0  0  0  0  0  0  0  0
    5.5952    2.6035  -12.2554 C   0  0  0  0  0  0  0  0  0  0  0  0
    5.2680    0.8411  -13.8566 C   0  0  0  0  0  0  0  0  0  0  0  0
    5.8625   -1.8549  -16.1524 O   0  0  0  0  0  0  0  0  0  0  0  0
    5.4678   -1.8802  -17.4752 C   0  0  0  0  0  0  0  0  0  0  0  0
    6.5374   -1.4033  -18.4494 C   0  0  0  0  0  0  0  0  0  0  0  0
    5.4299   -3.4152  -17.8038 C   0  0  0  0  0  0  0  0  0  0  0  0
    4.1389   -1.3831  -17.8648 C   0  0  0  0  0  0  0  0  0  0  0  0
   11.4640    2.6395  -16.8976 C   0  0  0  0  0  0  0  0  0  0  0  0
   12.4694    3.2251  -17.6374 C   0  0  0  0  0  0  0  0  0  0  0  0
   13.1390    2.5611  -18.6488 C   0  0  0  0  0  0  0  0  0  0  0  0
   12.8010    1.2498  -18.9487 C   0  0  0  0  0  0  0  0  0  0  0  0
   11.7856    0.6617  -18.1999 C   0  0  0  0  0  0  0  0  0  0  0  0
   11.1308    1.3433  -17.1951 C   0  0  0  0  0  0  0  0  0  0  0  0
   11.4350   -0.6428  -18.4832 O   0  0  0  0  0  0  0  0  0  0  0  0
   10.1898   -1.1560  -18.0058 C   0  0  0  0  0  0  0  0  0  0  0  0
 11 12  1  0  0  0
 12 13  1  0  0  0
 13 21  1  0  0  0
 21 22  1  0  0  0
 22 23  1  0  0  0
 22 24  1  0  0  0
 22 25  1  0  0  0
 13 14  2  0  0  0
 14 15  1  0  0  0
 15 16  1  0  0  0
 16 17  1  0  0  0
 17  1  1  0  0  0
  1  2  2  0  0  0
  2  3  1  0  0  0
  3  4  2  0  0  0
  4  5  1  0  0  0
  5  6  2  0  0  0
  6  7  1  0  0  0
  7  8  2  0  0  0
  8 26  1  0  0  0
 26 27  2  0  0  0
 27 28  1  0  0  0
 28 29  2  0  0  0
 29 30  1  0  0  0
 30 32  1  0  0  0
 32 33  1  0  0  0
 30 31  2  0  0  0
  8  9  1  0  0  0
  9 10  2  0  0  0
 17 18  1  0  0  0
 18 19  1  0  0  0
 18 20  1  0  0  0
 20 14  1  0  0  0
 10  1  1  0  0  0
 10  5  1  0  0  0
 31 26  1  0  0  0
M  CHG 1  14   1
M  END
> <minimizedAffinity>
-8.01438

$$$$
17_1


 33 36  0  0  0  0  0  0  0  0999 V2000
   10.5354    5.5885  -13.6795 C   0  0  0  0  0  0  0  0  0  0  0  0
   10.6698    6.7264  -12.9370 N   0  0  0  0  0  0  0  0  0  0  0  0
   11.6882    7.5612  -13.2013 C   0  0  0  0  0  0  0  0  0  0  0  0
   12.5835    7.3156  -14.1744 N   0  0  0  0  0  0  0  0  0  0  0  0
   12.5030    6.2073  -14.9418 C   0  0  0  0  0  0  0  0  0  0  0  0
   13.4049    5.9276  -15.9442 C   0  0  0  0  0  0  0  0  0  0  0  0
   13.2261    4.7910  -16.6438 N   0  0  0  0  0  0  0  0  0  0  0  0
   12.2301    3.9189  -16.4268 C   0  0  0  0  0  0  0  0  0  0  0  0
   11.3351    4.2060  -15.4250 C   0  0  0  0  0  0  0  0  0  0  0  0
   11.4469    5.3446  -14.6654 C   0  0  0  0  0  0  0  0  0  0  0  0
    5.0400    3.5959  -12.0599 H   0  0  0  0  0  0  0  0  0  0  0  0
    4.9477    2.8276  -12.7454 O   0  0  0  0  0  0  0  0  0  0  0  0
    6.1611    2.2829  -13.2313 C   0  0  0  0  0  0  0  0  0  0  0  0
    7.1795    3.0512  -13.3670 N   0  0  0  0  0  0  0  0  0  0  0  0
    8.4907    2.6705  -13.8403 C   0  0  0  0  0  0  0  0  0  0  0  0
    9.5479    3.3764  -12.9364 C   0  0  0  0  0  0  0  0  0  0  0  0
    9.4371    4.7606  -13.3500 N   0  0  0  0  0  0  0  0  0  0  0  0
    8.1122    5.3465  -13.4471 C   0  0  0  0  0  0  0  0  0  0  0  0
    8.1076    6.5136  -12.4811 C   0  0  0  0  0  0  0  0  0  0  0  0
    7.0013    4.4487  -13.0184 C   0  0  0  0  0  0  0  0  0  0  0  0
    6.3324    0.9655  -13.5770 O   0  0  0  0  0  0  0  0  0  0  0  0
    5.5201    0.3117  -14.4820 C   0  0  0  0  0  0  0  0  0  0  0  0
    5.7418    0.7327  -15.9292 C   0  0  0  0  0  0  0  0  0  0  0  0
    6.1113   -1.1428  -14.5019 C   0  0  0  0  0  0  0  0  0  0  0  0
    4.0880    0.1278  -14.1988 C   0  0  0  0  0  0  0  0  0  0  0  0
   12.1624    2.7304  -17.2627 C   0  0  0  0  0  0  0  0  0  0  0  0
   12.9697    2.6720  -18.3789 C   0  0  0  0  0  0  0  0  0  0  0  0
   12.9816    1.5891  -19.2387 C   0  0  0  0  0  0  0  0  0  0  0  0
   12.1544    0.5047  -18.9866 C   0  0  0  0  0  0  0  0  0  0  0  0
   11.3408    0.5669  -17.8589 C   0  0  0  0  0  0  0  0  0  0  0  0
   11.3452    1.6578  -17.0147 C   0  0  0  0  0  0  0  0  0  0  0  0
   10.5106   -0.5027  -17.5909 O   0  0  0  0  0  0  0  0  0  0  0  0
    9.3663   -0.3131  -16.7566 C   0  0  0  0  0  0  0  0  0  0  0  0
 11 12  1  0  0  0
 12 13  1  0  0  0
 13 21  1  0  0  0
 21 22  1  0  0  0
 22 23  1  0  0  0
 22 24  1  0  0  0
 22 25  1  0  0  0
 13 14  2  0  0  0
 14 15  1  0  0  0
 15 16  1  0  0  0
 16 17  1  0  0  0
 17  1  1  0  0  0
  1  2  2  0  0  0
  2  3  1  0  0  0
  3  4  2  0  0  0
  4  5  1  0  0  0
  5  6  2  0  0  0
  6  7  1  0  0  0
  7  8  2  0  0  0
  8 26  1  0  0  0
 26 27  2  0  0  0
 27 28  1  0  0  0
 28 29  2  0  0  0
 29 30  1  0  0  0
 30 32  1  0  0  0
 32 33  1  0  0  0
 30 31  2  0  0  0
  8  9  1  0  0  0
  9 10  2  0  0  0
 17 18  1  0  0  0
 18 19  1  0  0  0
 18 20  1  0  0  0
 20 14  1  0  0  0
 10  1  1  0  0  0
 10  5  1  0  0  0
 31 26  1  0  0  0
M  CHG 1  14   1
M  END
> <minimizedAffinity>
-7.90105

$$$$
17_1


 33 36  0  0  0  0  0  0  0  0999 V2000
   10.2657    6.9720  -10.8760 C   0  0  0  0  0  0  0  0  0  0  0  0
   10.3587    7.3734   -9.5743 N   0  0  0  0  0  0  0  0  0  0  0  0
   11.4395    8.0674   -9.1814 C   0  0  0  0  0  0  0  0  0  0  0  0
   12.4367    8.3822  -10.0271 N   0  0  0  0  0  0  0  0  0  0  0  0
   12.4014    8.0131  -11.3257 C   0  0  0  0  0  0  0  0  0  0  0  0
   13.4073    8.3191  -12.2152 C   0  0  0  0  0  0  0  0  0  0  0  0
   13.2648    7.8971  -13.4860 N   0  0  0  0  0  0  0  0  0  0  0  0
   12.2105    7.2012  -13.9374 C   0  0  0  0  0  0  0  0  0  0  0  0
   11.2119    6.9006  -13.0433 C   0  0  0  0  0  0  0  0  0  0  0  0
   11.2806    7.2944  -11.7294 C   0  0  0  0  0  0  0  0  0  0  0  0
    4.8322    5.4220  -13.0822 H   0  0  0  0  0  0  0  0  0  0  0  0
    5.0787    4.4898  -13.4551 O   0  0  0  0  0  0  0  0  0  0  0  0
    6.1847    3.8515  -12.8432 C   0  0  0  0  0  0  0  0  0  0  0  0
    7.1552    4.5679  -12.4067 N   0  0  0  0  0  0  0  0  0  0  0  0
    8.3539    4.0920  -11.7547 C   0  0  0  0  0  0  0  0  0  0  0  0
    8.6543    5.0430  -10.5554 C   0  0  0  0  0  0  0  0  0  0  0  0
    9.0980    6.2519  -11.2195 N   0  0  0  0  0  0  0  0  0  0  0  0
    8.3036    6.7631  -12.3221 C   0  0  0  0  0  0  0  0  0  0  0  0
    7.8734    8.1553  -11.9072 C   0  0  0  0  0  0  0  0  0  0  0  0
    7.0485    6.0036  -12.5902 C   0  0  0  0  0  0  0  0  0  0  0  0
    6.2990    2.4932  -12.6799 O   0  0  0  0  0  0  0  0  0  0  0  0
    6.0365    1.5879  -13.6888 C   0  0  0  0  0  0  0  0  0  0  0  0
    6.6365    1.9710  -15.0356 C   0  0  0  0  0  0  0  0  0  0  0  0
    6.9336    0.3583  -13.3030 C   0  0  0  0  0  0  0  0  0  0  0  0
    4.6861    1.0270  -13.8522 C   0  0  0  0  0  0  0  0  0  0  0  0
   12.1928    6.8114  -15.3386 C   0  0  0  0  0  0  0  0  0  0  0  0
   12.8091    7.6392  -16.2531 C   0  0  0  0  0  0  0  0  0  0  0  0
   12.8489    7.3612  -17.6071 C   0  0  0  0  0  0  0  0  0  0  0  0
   12.2499    6.2062  -18.0875 C   0  0  0  0  0  0  0  0  0  0  0  0
   11.6287    5.3728  -17.1617 C   0  0  0  0  0  0  0  0  0  0  0  0
   11.6010    5.6700  -15.8149 C   0  0  0  0  0  0  0  0  0  0  0  0
   11.0270    4.2184  -17.6203 O   0  0  0  0  0  0  0  0  0  0  0  0
   11.6683    3.4477  -18.6383 C   0  0  0  0  0  0  0  0  0  0  0  0
 11 12  1  0  0  0
 12 13  1  0  0  0
 13 21  1  0  0  0
 21 22  1  0  0  0
 22 23  1  0  0  0
 22 24  1  0  0  0
 22 25  1  0  0  0
 13 14  2  0  0  0
 14 15  1  0  0  0
 15 16  1  0  0  0
 16 17  1  0  0  0
 17  1  1  0  0  0
  1  2  2  0  0  0
  2  3  1  0  0  0
  3  4  2  0  0  0
  4  5  1  0  0  0
  5  6  2  0  0  0
  6  7  1  0  0  0
  7  8  2  0  0  0
  8 26  1  0  0  0
 26 27  2  0  0  0
 27 28  1  0  0  0
 28 29  2  0  0  0
 29 30  1  0  0  0
 30 32  1  0  0  0
 32 33  1  0  0  0
 30 31  2  0  0  0
  8  9  1  0  0  0
  9 10  2  0  0  0
 17 18  1  0  0  0
 18 19  1  0  0  0
 18 20  1  0  0  0
 20 14  1  0  0  0
 10  1  1  0  0  0
 10  5  1  0  0  0
 31 26  1  0  0  0
M  CHG 1  14   1
M  END
> <minimizedAffinity>
-7.65190

$$$$
17_1


 33 36  0  0  0  0  0  0  0  0999 V2000
    8.7377    4.2859  -13.0716 C   0  0  0  0  0  0  0  0  0  0  0  0
    8.0365    4.7575  -11.9992 N   0  0  0  0  0  0  0  0  0  0  0  0
    8.4706    5.8622  -11.3706 C   0  0  0  0  0  0  0  0  0  0  0  0
    9.5750    6.5229  -11.7612 N   0  0  0  0  0  0  0  0  0  0  0  0
   10.3099    6.1051  -12.8143 C   0  0  0  0  0  0  0  0  0  0  0  0
   11.4458    6.7590  -13.2370 C   0  0  0  0  0  0  0  0  0  0  0  0
   12.0995    6.2496  -14.2984 N   0  0  0  0  0  0  0  0  0  0  0  0
   11.7158    5.1511  -14.9661 C   0  0  0  0  0  0  0  0  0  0  0  0
   10.5816    4.5053  -14.5376 C   0  0  0  0  0  0  0  0  0  0  0  0
    9.8575    4.9604  -13.4631 C   0  0  0  0  0  0  0  0  0  0  0  0
    4.9915    0.0208  -15.2089 H   0  0  0  0  0  0  0  0  0  0  0  0
    5.4456   -0.1370  -16.1241 O   0  0  0  0  0  0  0  0  0  0  0  0
    6.8236    0.1811  -16.1940 C   0  0  0  0  0  0  0  0  0  0  0  0
    7.2754    1.1551  -15.4918 N   0  0  0  0  0  0  0  0  0  0  0  0
    8.6439    1.6153  -15.4339 C   0  0  0  0  0  0  0  0  0  0  0  0
    8.9827    1.9188  -13.9419 C   0  0  0  0  0  0  0  0  0  0  0  0
    8.2187    3.1234  -13.6875 N   0  0  0  0  0  0  0  0  0  0  0  0
    6.8265    3.1556  -14.0984 C   0  0  0  0  0  0  0  0  0  0  0  0
    6.0300    3.3929  -12.8316 C   0  0  0  0  0  0  0  0  0  0  0  0
    6.3177    1.8779  -14.6753 C   0  0  0  0  0  0  0  0  0  0  0  0
    7.7321   -0.4888  -16.9754 O   0  0  0  0  0  0  0  0  0  0  0  0
    7.6221   -0.5811  -18.3486 C   0  0  0  0  0  0  0  0  0  0  0  0
    7.3211    0.7447  -19.0359 C   0  0  0  0  0  0  0  0  0  0  0  0
    9.1042   -0.8235  -18.8068 C   0  0  0  0  0  0  0  0  0  0  0  0
    6.8584   -1.6793  -18.9616 C   0  0  0  0  0  0  0  0  0  0  0  0
   12.5222    4.7165  -16.0960 C   0  0  0  0  0  0  0  0  0  0  0  0
   12.1008    3.6162  -16.8122 C   0  0  0  0  0  0  0  0  0  0  0  0
   12.7938    3.1217  -17.9019 C   0  0  0  0  0  0  0  0  0  0  0  0
   13.9649    3.7433  -18.3089 C   0  0  0  0  0  0  0  0  0  0  0  0
   14.3874    4.8537  -17.5836 C   0  0  0  0  0  0  0  0  0  0  0  0
   13.6800    5.3300  -16.4993 C   0  0  0  0  0  0  0  0  0  0  0  0
   15.5506    5.4862  -17.9733 O   0  0  0  0  0  0  0  0  0  0  0  0
   15.5864    6.9130  -18.0421 C   0  0  0  0  0  0  0  0  0  0  0  0
 11 12  1  0  0  0
 12 13  1  0  0  0
 13 21  1  0  0  0
 21 22  1  0  0  0
 22 23  1  0  0  0
 22 24  1  0  0  0
 22 25  1  0  0  0
 13 14  2  0  0  0
 14 15  1  0  0  0
 15 16  1  0  0  0
 16 17  1  0  0  0
 17  1  1  0  0  0
  1  2  2  0  0  0
  2  3  1  0  0  0
  3  4  2  0  0  0
  4  5  1  0  0  0
  5  6  2  0  0  0
  6  7  1  0  0  0
  7  8  2  0  0  0
  8 26  1  0  0  0
 26 27  2  0  0  0
 27 28  1  0  0  0
 28 29  2  0  0  0
 29 30  1  0  0  0
 30 32  1  0  0  0
 32 33  1  0  0  0
 30 31  2  0  0  0
  8  9  1  0  0  0
  9 10  2  0  0  0
 17 18  1  0  0  0
 18 19  1  0  0  0
 18 20  1  0  0  0
 20 14  1  0  0  0
 10  1  1  0  0  0
 10  5  1  0  0  0
 31 26  1  0  0  0
M  CHG 1  14   1
M  END
> <minimizedAffinity>
-7.40575

$$$$
17_1


 33 36  0  0  0  0  0  0  0  0999 V2000
    9.5508    4.9122  -12.6273 C   0  0  0  0  0  0  0  0  0  0  0  0
    8.9827    4.9220  -11.3858 N   0  0  0  0  0  0  0  0  0  0  0  0
    9.4119    5.8152  -10.4792 C   0  0  0  0  0  0  0  0  0  0  0  0
   10.3845    6.7033  -10.7514 N   0  0  0  0  0  0  0  0  0  0  0  0
   10.9841    6.7421  -11.9608 C   0  0  0  0  0  0  0  0  0  0  0  0
   11.9834    7.6383  -12.2690 C   0  0  0  0  0  0  0  0  0  0  0  0
   12.5095    7.5831  -13.5073 N   0  0  0  0  0  0  0  0  0  0  0  0
   12.1235    6.7149  -14.4543 C   0  0  0  0  0  0  0  0  0  0  0  0
   11.1261    5.8248  -14.1382 C   0  0  0  0  0  0  0  0  0  0  0  0
   10.5372    5.8156  -12.8976 C   0  0  0  0  0  0  0  0  0  0  0  0
    9.0069    0.1425  -16.3351 H   0  0  0  0  0  0  0  0  0  0  0  0
    8.0706   -0.1778  -16.0360 O   0  0  0  0  0  0  0  0  0  0  0  0
    7.2316    0.8103  -15.4660 C   0  0  0  0  0  0  0  0  0  0  0  0
    7.7596    1.7555  -14.7779 N   0  0  0  0  0  0  0  0  0  0  0  0
    7.0639    2.8446  -14.1313 C   0  0  0  0  0  0  0  0  0  0  0  0
    7.8848    4.1479  -14.3769 C   0  0  0  0  0  0  0  0  0  0  0  0
    9.0448    3.9497  -13.5317 N   0  0  0  0  0  0  0  0  0  0  0  0
    9.7376    2.6756  -13.6008 C   0  0  0  0  0  0  0  0  0  0  0  0
   11.1540    3.0013  -14.0290 C   0  0  0  0  0  0  0  0  0  0  0  0
    9.2023    1.7302  -14.6224 C   0  0  0  0  0  0  0  0  0  0  0  0
    5.8652    0.8319  -15.5966 O   0  0  0  0  0  0  0  0  0  0  0  0
    5.0552   -0.2212  -15.2208 C   0  0  0  0  0  0  0  0  0  0  0  0
    5.8077   -1.3868  -14.5915 C   0  0  0  0  0  0  0  0  0  0  0  0
    4.2913    0.3478  -13.9726 C   0  0  0  0  0  0  0  0  0  0  0  0
    3.9940   -0.7012  -16.1199 C   0  0  0  0  0  0  0  0  0  0  0  0
   12.7833    6.7717  -15.7494 C   0  0  0  0  0  0  0  0  0  0  0  0
   13.0803    8.0111  -16.2756 C   0  0  0  0  0  0  0  0  0  0  0  0
   13.7054    8.1754  -17.4981 C   0  0  0  0  0  0  0  0  0  0  0  0
   14.0574    7.0599  -18.2433 C   0  0  0  0  0  0  0  0  0  0  0  0
   13.7561    5.8103  -17.7091 C   0  0  0  0  0  0  0  0  0  0  0  0
   13.1318    5.6698  -16.4872 C   0  0  0  0  0  0  0  0  0  0  0  0
   14.0988    4.6880  -18.4357 O   0  0  0  0  0  0  0  0  0  0  0  0
   14.7719    4.8385  -19.6871 C   0  0  0  0  0  0  0  0  0  0  0  0
 11 12  1  0  0  0
 12 13  1  0  0  0
 13 21  1  0  0  0
 21 22  1  0  0  0
 22 23  1  0  0  0
 22 24  1  0  0  0
 22 25  1  0  0  0
 13 14  2  0  0  0
 14 15  1  0  0  0
 15 16  1  0  0  0
 16 17  1  0  0  0
 17  1  1  0  0  0
  1  2  2  0  0  0
  2  3  1  0  0  0
  3  4  2  0  0  0
  4  5  1  0  0  0
  5  6  2  0  0  0
  6  7  1  0  0  0
  7  8  2  0  0  0
  8 26  1  0  0  0
 26 27  2  0  0  0
 27 28  1  0  0  0
 28 29  2  0  0  0
 29 30  1  0  0  0
 30 32  1  0  0  0
 32 33  1  0  0  0
 30 31  2  0  0  0
  8  9  1  0  0  0
  9 10  2  0  0  0
 17 18  1  0  0  0
 18 19  1  0  0  0
 18 20  1  0  0  0
 20 14  1  0  0  0
 10  1  1  0  0  0
 10  5  1  0  0  0
 31 26  1  0  0  0
M  CHG 1  14   1
M  END
> <minimizedAffinity>
-7.22473

$$$$
17_1


 33 36  0  0  0  0  0  0  0  0999 V2000
    9.0738    4.5813  -12.5313 C   0  0  0  0  0  0  0  0  0  0  0  0
    8.4546    4.4937  -11.3176 N   0  0  0  0  0  0  0  0  0  0  0  0
    8.7822    5.3695  -10.3534 C   0  0  0  0  0  0  0  0  0  0  0  0
    9.7015    6.3330  -10.5413 N   0  0  0  0  0  0  0  0  0  0  0  0
   10.3475    6.4697  -11.7193 C   0  0  0  0  0  0  0  0  0  0  0  0
   11.2944    7.4447  -11.9415 C   0  0  0  0  0  0  0  0  0  0  0  0
   11.8748    7.4842  -13.1560 N   0  0  0  0  0  0  0  0  0  0  0  0
   11.5903    6.6381  -14.1573 C   0  0  0  0  0  0  0  0  0  0  0  0
   10.6445    5.6688  -13.9269 C   0  0  0  0  0  0  0  0  0  0  0  0
   10.0058    5.5609  -12.7159 C   0  0  0  0  0  0  0  0  0  0  0  0
    5.7820    0.8418  -15.9914 H   0  0  0  0  0  0  0  0  0  0  0  0
    6.2268    1.0448  -16.9022 O   0  0  0  0  0  0  0  0  0  0  0  0
    7.5574    1.5261  -16.8473 C   0  0  0  0  0  0  0  0  0  0  0  0
    7.9138    2.2633  -15.8598 N   0  0  0  0  0  0  0  0  0  0  0  0
    9.2222    2.8351  -15.6378 C   0  0  0  0  0  0  0  0  0  0  0  0
    9.5634    2.6727  -14.1245 C   0  0  0  0  0  0  0  0  0  0  0  0
    8.6744    3.6312  -13.4997 N   0  0  0  0  0  0  0  0  0  0  0  0
    7.2772    3.6337  -13.8947 C   0  0  0  0  0  0  0  0  0  0  0  0
    6.4926    3.3509  -12.6299 C   0  0  0  0  0  0  0  0  0  0  0  0
    6.9019    2.5641  -14.8637 C   0  0  0  0  0  0  0  0  0  0  0  0
    8.5152    1.2578  -17.7934 O   0  0  0  0  0  0  0  0  0  0  0  0
    9.1503    0.0363  -17.8981 C   0  0  0  0  0  0  0  0  0  0  0  0
    8.2947   -1.0539  -18.5307 C   0  0  0  0  0  0  0  0  0  0  0  0
   10.2057    0.2824  -19.0342 C   0  0  0  0  0  0  0  0  0  0  0  0
    9.9333   -0.4941  -16.7709 C   0  0  0  0  0  0  0  0  0  0  0  0
   12.2986    6.8007  -15.4173 C   0  0  0  0  0  0  0  0  0  0  0  0
   12.8850    8.0202  -15.6824 C   0  0  0  0  0  0  0  0  0  0  0  0
   13.5805    8.2788  -16.8493 C   0  0  0  0  0  0  0  0  0  0  0  0
   13.7059    7.2838  -17.8073 C   0  0  0  0  0  0  0  0  0  0  0  0
   13.1127    6.0540  -17.5365 C   0  0  0  0  0  0  0  0  0  0  0  0
   12.4232    5.8181  -16.3653 C   0  0  0  0  0  0  0  0  0  0  0  0
   13.2266    5.0510  -18.4777 O   0  0  0  0  0  0  0  0  0  0  0  0
   13.9691    3.8716  -18.1624 C   0  0  0  0  0  0  0  0  0  0  0  0
 11 12  1  0  0  0
 12 13  1  0  0  0
 13 21  1  0  0  0
 21 22  1  0  0  0
 22 23  1  0  0  0
 22 24  1  0  0  0
 22 25  1  0  0  0
 13 14  2  0  0  0
 14 15  1  0  0  0
 15 16  1  0  0  0
 16 17  1  0  0  0
 17  1  1  0  0  0
  1  2  2  0  0  0
  2  3  1  0  0  0
  3  4  2  0  0  0
  4  5  1  0  0  0
  5  6  2  0  0  0
  6  7  1  0  0  0
  7  8  2  0  0  0
  8 26  1  0  0  0
 26 27  2  0  0  0
 27 28  1  0  0  0
 28 29  2  0  0  0
 29 30  1  0  0  0
 30 32  1  0  0  0
 32 33  1  0  0  0
 30 31  2  0  0  0
  8  9  1  0  0  0
  9 10  2  0  0  0
 17 18  1  0  0  0
 18 19  1  0  0  0
 18 20  1  0  0  0
 20 14  1  0  0  0
 10  1  1  0  0  0
 10  5  1  0  0  0
 31 26  1  0  0  0
M  CHG 1  14   1
M  END
> <minimizedAffinity>
-6.62159

$$$$
