8_0


 28 30  0  0  0  0  0  0  0  0999 V2000
   10.4107    6.7622  -10.6401 C   0  0  0  0  0  0  0  0  0  0  0  0
   11.5737    7.6492  -11.0614 C   0  0  0  0  0  0  0  0  0  0  0  0
   12.4500    7.9842   -9.8814 C   0  0  0  0  0  0  0  0  0  0  0  0
   11.7762    8.8170   -8.8936 N   0  0  0  0  0  0  0  0  0  0  0  0
   10.3897    8.4047   -8.7788 C   0  0  0  0  0  0  0  0  0  0  0  0
   10.2887    6.9392   -9.1183 C   0  0  0  0  0  0  0  0  0  0  0  0
    7.0149    8.2092  -12.0203 H   0  0  0  0  0  0  0  0  0  0  0  0
    7.2758    7.3195  -12.4418 O   0  0  0  0  0  0  0  0  0  0  0  0
    8.4742    6.6737  -12.1130 C   0  0  0  0  0  0  0  0  0  0  0  0
    9.1701    7.1800  -11.1893 N   0  0  0  0  0  0  0  0  0  0  0  0
    8.8292    5.4617  -12.8643 C   0  0  0  0  0  0  0  0  0  0  0  0
    9.9139    5.2060  -13.5468 O   0  0  0  0  0  0  0  0  0  0  0  0
    9.8855    4.0138  -14.0904 C   0  0  0  0  0  0  0  0  0  0  0  0
   10.9621    3.3949  -14.9387 C   0  0  0  0  0  0  0  0  0  0  0  0
    8.6945    3.3965  -13.7616 C   0  0  0  0  0  0  0  0  0  0  0  0
    8.0242    4.3269  -12.9782 C   0  0  0  0  0  0  0  0  0  0  0  0
   12.4915    8.7580   -7.6325 C   0  0  0  0  0  0  0  0  0  0  0  0
   11.8742    9.5562   -6.5510 C   0  0  0  0  0  0  0  0  0  0  0  0
   10.8759   10.3369   -6.7601 O   0  0  0  0  0  0  0  0  0  0  0  0
   12.3649    9.4772   -5.2666 N   0  0  0  0  0  0  0  0  0  0  0  0
   12.2631    8.7032   -4.3076 C   0  0  0  0  0  0  0  0  0  0  0  0
   11.5267    7.5312   -4.2343 C   0  0  0  0  0  0  0  0  0  0  0  0
   10.7225    7.0190   -5.3617 C   0  0  0  0  0  0  0  0  0  0  0  0
   11.5050    6.7562   -3.0690 C   0  0  0  0  0  0  0  0  0  0  0  0
   12.2192    7.1521   -1.9772 C   0  0  0  0  0  0  0  0  0  0  0  0
   12.9404    8.3071   -2.0602 C   0  0  0  0  0  0  0  0  0  0  0  0
   12.9460    9.0239   -3.1727 N   0  0  0  0  0  0  0  0  0  0  0  0
   13.5254    9.9054   -3.1664 H   0  0  0  0  0  0  0  0  0  0  0  0
  7  8  1  0  0  0
  8  9  1  0  0  0
  9 10  2  0  0  0
 10  1  1  0  0  0
  1  2  1  0  0  0
  2  3  1  0  0  0
  3  4  1  0  0  0
  4 17  1  0  0  0
 17 18  1  0  0  0
 18 19  2  0  0  0
 18 20  1  0  0  0
 20 21  2  0  0  0
 21 22  1  0  0  0
 22 23  1  0  0  0
 22 24  2  0  0  0
 24 25  1  0  0  0
 25 26  2  0  0  0
 26 27  1  0  0  0
 27 28  1  0  0  0
  4  5  1  0  0  0
  5  6  1  0  0  0
  9 11  1  0  0  0
 11 12  1  0  0  0
 12 13  1  0  0  0
 13 14  1  0  0  0
 13 15  2  0  0  0
 15 16  1  0  0  0
  6  1  1  0  0  0
 16 11  2  0  0  0
 27 21  1  0  0  0
M  END
> <minimizedAffinity>
-9.79837

$$$$
8_0


 28 30  0  0  0  0  0  0  0  0999 V2000
    6.8693    4.4785  -12.9122 C   0  0  0  0  0  0  0  0  0  0  0  0
    7.6775    3.3117  -13.4619 C   0  0  0  0  0  0  0  0  0  0  0  0
    6.7792    2.3024  -14.1304 C   0  0  0  0  0  0  0  0  0  0  0  0
    5.8818    1.6357  -13.1957 N   0  0  0  0  0  0  0  0  0  0  0  0
    5.4264    2.5881  -12.2002 C   0  0  0  0  0  0  0  0  0  0  0  0
    5.4237    3.9663  -12.8114 C   0  0  0  0  0  0  0  0  0  0  0  0
    7.6879    5.3157   -9.1494 H   0  0  0  0  0  0  0  0  0  0  0  0
    8.4170    5.6105   -9.7965 O   0  0  0  0  0  0  0  0  0  0  0  0
    8.3268    5.3562  -11.1708 C   0  0  0  0  0  0  0  0  0  0  0  0
    7.2534    4.8451  -11.5956 N   0  0  0  0  0  0  0  0  0  0  0  0
    9.4826    5.7017  -12.0100 C   0  0  0  0  0  0  0  0  0  0  0  0
   10.2167    4.9222  -12.7591 O   0  0  0  0  0  0  0  0  0  0  0  0
   11.1707    5.5807  -13.3704 C   0  0  0  0  0  0  0  0  0  0  0  0
   12.1956    5.0013  -14.3061 C   0  0  0  0  0  0  0  0  0  0  0  0
   11.0937    6.9146  -13.0207 C   0  0  0  0  0  0  0  0  0  0  0  0
   10.0131    6.9852  -12.1512 C   0  0  0  0  0  0  0  0  0  0  0  0
    4.7926    1.0109  -13.9227 C   0  0  0  0  0  0  0  0  0  0  0  0
    5.1074   -0.3397  -14.4374 C   0  0  0  0  0  0  0  0  0  0  0  0
    6.0612   -1.0516  -13.9547 O   0  0  0  0  0  0  0  0  0  0  0  0
    4.3674   -0.8774  -15.4669 N   0  0  0  0  0  0  0  0  0  0  0  0
    4.4115   -0.8834  -16.7027 C   0  0  0  0  0  0  0  0  0  0  0  0
    5.3434   -0.2685  -17.5241 C   0  0  0  0  0  0  0  0  0  0  0  0
    6.4778    0.5178  -16.9996 C   0  0  0  0  0  0  0  0  0  0  0  0
    5.2592   -0.3609  -18.9181 C   0  0  0  0  0  0  0  0  0  0  0  0
    4.2442   -1.0679  -19.4914 C   0  0  0  0  0  0  0  0  0  0  0  0
    3.3324   -1.6691  -18.6737 C   0  0  0  0  0  0  0  0  0  0  0  0
    3.4320   -1.5680  -17.3580 N   0  0  0  0  0  0  0  0  0  0  0  0
    2.6926   -2.0579  -16.7870 H   0  0  0  0  0  0  0  0  0  0  0  0
  7  8  1  0  0  0
  8  9  1  0  0  0
  9 10  2  0  0  0
 10  1  1  0  0  0
  1  2  1  0  0  0
  2  3  1  0  0  0
  3  4  1  0  0  0
  4 17  1  0  0  0
 17 18  1  0  0  0
 18 19  2  0  0  0
 18 20  1  0  0  0
 20 21  2  0  0  0
 21 22  1  0  0  0
 22 23  1  0  0  0
 22 24  2  0  0  0
 24 25  1  0  0  0
 25 26  2  0  0  0
 26 27  1  0  0  0
 27 28  1  0  0  0
  4  5  1  0  0  0
  5  6  1  0  0  0
  9 11  1  0  0  0
 11 12  1  0  0  0
 12 13  1  0  0  0
 13 14  1  0  0  0
 13 15  2  0  0  0
 15 16  1  0  0  0
  6  1  1  0  0  0
 16 11  2  0  0  0
 27 21  1  0  0  0
M  END
> <minimizedAffinity>
-8.98511

$$$$
8_0


 28 30  0  0  0  0  0  0  0  0999 V2000
    6.0421    2.5595  -13.4119 C   0  0  0  0  0  0  0  0  0  0  0  0
    5.4437    3.3486  -12.2560 C   0  0  0  0  0  0  0  0  0  0  0  0
    5.9652    4.7629  -12.2429 C   0  0  0  0  0  0  0  0  0  0  0  0
    7.3916    4.8382  -11.9547 N   0  0  0  0  0  0  0  0  0  0  0  0
    8.0740    3.7316  -12.5993 C   0  0  0  0  0  0  0  0  0  0  0  0
    7.3009    3.3353  -13.8315 C   0  0  0  0  0  0  0  0  0  0  0  0
    7.3466   -0.9044  -12.0592 H   0  0  0  0  0  0  0  0  0  0  0  0
    6.8357   -0.9801  -12.9371 O   0  0  0  0  0  0  0  0  0  0  0  0
    6.2548    0.1380  -13.5483 C   0  0  0  0  0  0  0  0  0  0  0  0
    6.4826    1.2656  -13.0282 N   0  0  0  0  0  0  0  0  0  0  0  0
    5.4283   -0.0847  -14.7428 C   0  0  0  0  0  0  0  0  0  0  0  0
    5.7066    0.1699  -15.9940 O   0  0  0  0  0  0  0  0  0  0  0  0
    4.7242   -0.1615  -16.7955 C   0  0  0  0  0  0  0  0  0  0  0  0
    4.7035   -0.0077  -18.2913 C   0  0  0  0  0  0  0  0  0  0  0  0
    3.6881   -0.6844  -16.0467 C   0  0  0  0  0  0  0  0  0  0  0  0
    4.1443   -0.6325  -14.7360 C   0  0  0  0  0  0  0  0  0  0  0  0
    7.9057    6.1337  -12.3581 C   0  0  0  0  0  0  0  0  0  0  0  0
    9.3550    6.3086  -12.1192 C   0  0  0  0  0  0  0  0  0  0  0  0
   10.2376    5.5746  -12.6951 O   0  0  0  0  0  0  0  0  0  0  0  0
    9.8008    7.2852  -11.2566 N   0  0  0  0  0  0  0  0  0  0  0  0
   10.0266    7.3844  -10.0448 C   0  0  0  0  0  0  0  0  0  0  0  0
    9.8771    6.4117   -9.0687 C   0  0  0  0  0  0  0  0  0  0  0  0
    9.4051    5.0446   -9.3663 C   0  0  0  0  0  0  0  0  0  0  0  0
   10.1704    6.6760   -7.7259 C   0  0  0  0  0  0  0  0  0  0  0  0
   10.6133    7.9120   -7.3585 C   0  0  0  0  0  0  0  0  0  0  0  0
   10.7568    8.8620   -8.3271 C   0  0  0  0  0  0  0  0  0  0  0  0
   10.4733    8.5893   -9.5907 N   0  0  0  0  0  0  0  0  0  0  0  0
   10.6072    9.3708  -10.2865 H   0  0  0  0  0  0  0  0  0  0  0  0
  7  8  1  0  0  0
  8  9  1  0  0  0
  9 10  2  0  0  0
 10  1  1  0  0  0
  1  2  1  0  0  0
  2  3  1  0  0  0
  3  4  1  0  0  0
  4 17  1  0  0  0
 17 18  1  0  0  0
 18 19  2  0  0  0
 18 20  1  0  0  0
 20 21  2  0  0  0
 21 22  1  0  0  0
 22 23  1  0  0  0
 22 24  2  0  0  0
 24 25  1  0  0  0
 25 26  2  0  0  0
 26 27  1  0  0  0
 27 28  1  0  0  0
  4  5  1  0  0  0
  5  6  1  0  0  0
  9 11  1  0  0  0
 11 12  1  0  0  0
 12 13  1  0  0  0
 13 14  1  0  0  0
 13 15  2  0  0  0
 15 16  1  0  0  0
  6  1  1  0  0  0
 16 11  2  0  0  0
 27 21  1  0  0  0
M  END
> <minimizedAffinity>
-8.94513

$$$$
8_0


 28 30  0  0  0  0  0  0  0  0999 V2000
    8.7629    3.1014  -14.9534 C   0  0  0  0  0  0  0  0  0  0  0  0
    8.1385    3.4759  -13.6167 C   0  0  0  0  0  0  0  0  0  0  0  0
    8.5314    4.8739  -13.2120 C   0  0  0  0  0  0  0  0  0  0  0  0
    9.9549    5.0025  -12.9280 N   0  0  0  0  0  0  0  0  0  0  0  0
   10.7098    4.1902  -13.8640 C   0  0  0  0  0  0  0  0  0  0  0  0
    9.9312    4.0806  -15.1503 C   0  0  0  0  0  0  0  0  0  0  0  0
   10.6033   -0.3804  -14.8119 H   0  0  0  0  0  0  0  0  0  0  0  0
    9.6190   -0.4538  -15.0630 O   0  0  0  0  0  0  0  0  0  0  0  0
    8.7884    0.6725  -15.1176 C   0  0  0  0  0  0  0  0  0  0  0  0
    9.3310    1.8004  -14.9527 N   0  0  0  0  0  0  0  0  0  0  0  0
    7.3553    0.4572  -15.3617 C   0  0  0  0  0  0  0  0  0  0  0  0
    6.4017    0.2185  -14.5006 O   0  0  0  0  0  0  0  0  0  0  0  0
    5.2355    0.0786  -15.0819 C   0  0  0  0  0  0  0  0  0  0  0  0
    3.9264   -0.2027  -14.3974 C   0  0  0  0  0  0  0  0  0  0  0  0
    5.3902    0.2313  -16.4458 C   0  0  0  0  0  0  0  0  0  0  0  0
    6.7469    0.4729  -16.6180 C   0  0  0  0  0  0  0  0  0  0  0  0
   10.3360    6.4023  -12.9564 C   0  0  0  0  0  0  0  0  0  0  0  0
    9.6714    7.2293  -11.9256 C   0  0  0  0  0  0  0  0  0  0  0  0
    8.4026    7.4287  -11.9206 O   0  0  0  0  0  0  0  0  0  0  0  0
   10.4138    7.8155  -10.9247 N   0  0  0  0  0  0  0  0  0  0  0  0
   10.6430    7.6026   -9.7283 C   0  0  0  0  0  0  0  0  0  0  0  0
   10.1545    6.5739   -8.9381 C   0  0  0  0  0  0  0  0  0  0  0  0
    9.2455    5.5307   -9.4535 C   0  0  0  0  0  0  0  0  0  0  0  0
   10.5021    6.4655   -7.5866 C   0  0  0  0  0  0  0  0  0  0  0  0
   11.3378    7.3846   -7.0249 C   0  0  0  0  0  0  0  0  0  0  0  0
   11.8127    8.3930   -7.8116 C   0  0  0  0  0  0  0  0  0  0  0  0
   11.4704    8.4755   -9.0873 N   0  0  0  0  0  0  0  0  0  0  0  0
   11.8746    9.2806   -9.6360 H   0  0  0  0  0  0  0  0  0  0  0  0
  7  8  1  0  0  0
  8  9  1  0  0  0
  9 10  2  0  0  0
 10  1  1  0  0  0
  1  2  1  0  0  0
  2  3  1  0  0  0
  3  4  1  0  0  0
  4 17  1  0  0  0
 17 18  1  0  0  0
 18 19  2  0  0  0
 18 20  1  0  0  0
 20 21  2  0  0  0
 21 22  1  0  0  0
 22 23  1  0  0  0
 22 24  2  0  0  0
 24 25  1  0  0  0
 25 26  2  0  0  0
 26 27  1  0  0  0
 27 28  1  0  0  0
  4  5  1  0  0  0
  5  6  1  0  0  0
  9 11  1  0  0  0
 11 12  1  0  0  0
 12 13  1  0  0  0
 13 14  1  0  0  0
 13 15  2  0  0  0
 15 16  1  0  0  0
  6  1  1  0  0  0
 16 11  2  0  0  0
 27 21  1  0  0  0
M  END
> <minimizedAffinity>
-8.63833

$$$$
8_0


 28 30  0  0  0  0  0  0  0  0999 V2000
    6.1812    0.1970  -14.7787 C   0  0  0  0  0  0  0  0  0  0  0  0
    6.5883    1.4999  -15.4521 C   0  0  0  0  0  0  0  0  0  0  0  0
    7.2147    2.4459  -14.4594 C   0  0  0  0  0  0  0  0  0  0  0  0
    6.2744    2.9091  -13.4471 N   0  0  0  0  0  0  0  0  0  0  0  0
    5.3873    1.8217  -13.0778 C   0  0  0  0  0  0  0  0  0  0  0  0
    6.1119    0.5145  -13.2765 C   0  0  0  0  0  0  0  0  0  0  0  0
    2.4617   -0.8449  -15.5598 H   0  0  0  0  0  0  0  0  0  0  0  0
    3.1087   -1.0598  -16.3165 O   0  0  0  0  0  0  0  0  0  0  0  0
    4.4654   -0.7202  -16.2423 C   0  0  0  0  0  0  0  0  0  0  0  0
    4.8822   -0.2362  -15.1534 N   0  0  0  0  0  0  0  0  0  0  0  0
    5.2969   -0.9517  -17.4317 C   0  0  0  0  0  0  0  0  0  0  0  0
    6.3220   -1.7494  -17.5752 O   0  0  0  0  0  0  0  0  0  0  0  0
    6.8226   -1.6969  -18.7852 C   0  0  0  0  0  0  0  0  0  0  0  0
    8.0006   -2.4790  -19.2973 C   0  0  0  0  0  0  0  0  0  0  0  0
    6.0922   -0.7974  -19.5369 C   0  0  0  0  0  0  0  0  0  0  0  0
    5.1189   -0.3248  -18.6662 C   0  0  0  0  0  0  0  0  0  0  0  0
    7.0011    3.4567  -12.3169 C   0  0  0  0  0  0  0  0  0  0  0  0
    6.8917    4.9259  -12.1840 C   0  0  0  0  0  0  0  0  0  0  0  0
    6.0234    5.6100  -12.8379 O   0  0  0  0  0  0  0  0  0  0  0  0
    7.7353    5.6084  -11.3361 N   0  0  0  0  0  0  0  0  0  0  0  0
    8.8625    6.1132  -11.3981 C   0  0  0  0  0  0  0  0  0  0  0  0
    9.7225    6.1442  -12.4846 C   0  0  0  0  0  0  0  0  0  0  0  0
    9.3832    5.5472  -13.7918 C   0  0  0  0  0  0  0  0  0  0  0  0
   10.9799    6.7533  -12.4012 C   0  0  0  0  0  0  0  0  0  0  0  0
   11.3778    7.3316  -11.2325 C   0  0  0  0  0  0  0  0  0  0  0  0
   10.5236    7.2954  -10.1693 C   0  0  0  0  0  0  0  0  0  0  0  0
    9.3393    6.7136  -10.2713 N   0  0  0  0  0  0  0  0  0  0  0  0
    8.7303    6.7226   -9.4100 H   0  0  0  0  0  0  0  0  0  0  0  0
  7  8  1  0  0  0
  8  9  1  0  0  0
  9 10  2  0  0  0
 10  1  1  0  0  0
  1  2  1  0  0  0
  2  3  1  0  0  0
  3  4  1  0  0  0
  4 17  1  0  0  0
 17 18  1  0  0  0
 18 19  2  0  0  0
 18 20  1  0  0  0
 20 21  2  0  0  0
 21 22  1  0  0  0
 22 23  1  0  0  0
 22 24  2  0  0  0
 24 25  1  0  0  0
 25 26  2  0  0  0
 26 27  1  0  0  0
 27 28  1  0  0  0
  4  5  1  0  0  0
  5  6  1  0  0  0
  9 11  1  0  0  0
 11 12  1  0  0  0
 12 13  1  0  0  0
 13 14  1  0  0  0
 13 15  2  0  0  0
 15 16  1  0  0  0
  6  1  1  0  0  0
 16 11  2  0  0  0
 27 21  1  0  0  0
M  END
> <minimizedAffinity>
-8.35933

$$$$
8_0


 28 30  0  0  0  0  0  0  0  0999 V2000
    9.8000    3.1988  -16.1561 C   0  0  0  0  0  0  0  0  0  0  0  0
    9.9644    4.7008  -15.9720 C   0  0  0  0  0  0  0  0  0  0  0  0
   10.1113    5.0512  -14.5131 C   0  0  0  0  0  0  0  0  0  0  0  0
    8.9050    4.7816  -13.7414 N   0  0  0  0  0  0  0  0  0  0  0  0
    8.2882    3.5585  -14.2202 C   0  0  0  0  0  0  0  0  0  0  0  0
    9.3609    2.6619  -14.7845 C   0  0  0  0  0  0  0  0  0  0  0  0
    6.8005    2.5688  -18.6332 H   0  0  0  0  0  0  0  0  0  0  0  0
    7.5086    1.8373  -18.6620 O   0  0  0  0  0  0  0  0  0  0  0  0
    8.6728    1.9102  -17.8870 C   0  0  0  0  0  0  0  0  0  0  0  0
    8.7618    2.8639  -17.0646 N   0  0  0  0  0  0  0  0  0  0  0  0
    9.6974    0.8763  -18.0887 C   0  0  0  0  0  0  0  0  0  0  0  0
   10.7266    0.8852  -18.8939 O   0  0  0  0  0  0  0  0  0  0  0  0
   11.4304   -0.2170  -18.8075 C   0  0  0  0  0  0  0  0  0  0  0  0
   12.6744   -0.5437  -19.5867 C   0  0  0  0  0  0  0  0  0  0  0  0
   10.8478   -1.0522  -17.8744 C   0  0  0  0  0  0  0  0  0  0  0  0
    9.7409   -0.3478  -17.4189 C   0  0  0  0  0  0  0  0  0  0  0  0
    9.2271    4.7384  -12.3273 C   0  0  0  0  0  0  0  0  0  0  0  0
    8.6890    5.8767  -11.5510 C   0  0  0  0  0  0  0  0  0  0  0  0
    7.4322    6.0213  -11.3290 O   0  0  0  0  0  0  0  0  0  0  0  0
    9.5420    6.8271  -11.0354 N   0  0  0  0  0  0  0  0  0  0  0  0
   10.0983    7.0486   -9.9534 C   0  0  0  0  0  0  0  0  0  0  0  0
   10.0155    6.3059   -8.7861 C   0  0  0  0  0  0  0  0  0  0  0  0
    9.2075    5.0750   -8.6758 C   0  0  0  0  0  0  0  0  0  0  0  0
   10.7048    6.6877   -7.6293 C   0  0  0  0  0  0  0  0  0  0  0  0
   11.4769    7.8113   -7.6390 C   0  0  0  0  0  0  0  0  0  0  0  0
   11.5513    8.5350   -8.7932 C   0  0  0  0  0  0  0  0  0  0  0  0
   10.8906    8.1547   -9.8750 N   0  0  0  0  0  0  0  0  0  0  0  0
   10.9937    8.7613  -10.7318 H   0  0  0  0  0  0  0  0  0  0  0  0
  7  8  1  0  0  0
  8  9  1  0  0  0
  9 10  2  0  0  0
 10  1  1  0  0  0
  1  2  1  0  0  0
  2  3  1  0  0  0
  3  4  1  0  0  0
  4 17  1  0  0  0
 17 18  1  0  0  0
 18 19  2  0  0  0
 18 20  1  0  0  0
 20 21  2  0  0  0
 21 22  1  0  0  0
 22 23  1  0  0  0
 22 24  2  0  0  0
 24 25  1  0  0  0
 25 26  2  0  0  0
 26 27  1  0  0  0
 27 28  1  0  0  0
  4  5  1  0  0  0
  5  6  1  0  0  0
  9 11  1  0  0  0
 11 12  1  0  0  0
 12 13  1  0  0  0
 13 14  1  0  0  0
 13 15  2  0  0  0
 15 16  1  0  0  0
  6  1  1  0  0  0
 16 11  2  0  0  0
 27 21  1  0  0  0
M  END
> <minimizedAffinity>
-8.29602

$$$$
8_0


 28 30  0  0  0  0  0  0  0  0999 V2000
   10.4462    5.4323  -12.4388 C   0  0  0  0  0  0  0  0  0  0  0  0
    9.6959    4.2090  -12.9460 C   0  0  0  0  0  0  0  0  0  0  0  0
   10.5207    3.4520  -13.9556 C   0  0  0  0  0  0  0  0  0  0  0  0
   10.7412    4.2032  -15.1846 N   0  0  0  0  0  0  0  0  0  0  0  0
   10.9417    5.6044  -14.8653 C   0  0  0  0  0  0  0  0  0  0  0  0
   11.5385    5.7077  -13.4846 C   0  0  0  0  0  0  0  0  0  0  0  0
    8.0126    8.5302  -12.5420 H   0  0  0  0  0  0  0  0  0  0  0  0
    8.6687    8.5578  -11.7635 O   0  0  0  0  0  0  0  0  0  0  0  0
    9.5807    7.5201  -11.5337 C   0  0  0  0  0  0  0  0  0  0  0  0
    9.6367    6.5977  -12.3938 N   0  0  0  0  0  0  0  0  0  0  0  0
   10.3993    7.5832  -10.3148 C   0  0  0  0  0  0  0  0  0  0  0  0
   10.1551    7.0798   -9.1339 O   0  0  0  0  0  0  0  0  0  0  0  0
   11.1160    7.3354   -8.2801 C   0  0  0  0  0  0  0  0  0  0  0  0
   11.1644    6.9095   -6.8387 C   0  0  0  0  0  0  0  0  0  0  0  0
   12.0991    8.0696   -8.9141 C   0  0  0  0  0  0  0  0  0  0  0  0
   11.6351    8.2246  -10.2139 C   0  0  0  0  0  0  0  0  0  0  0  0
   11.8501    3.6250  -15.9204 C   0  0  0  0  0  0  0  0  0  0  0  0
   11.6168    3.5175  -17.3771 C   0  0  0  0  0  0  0  0  0  0  0  0
   10.5734    4.0095  -17.9418 O   0  0  0  0  0  0  0  0  0  0  0  0
   12.5341    2.8755  -18.1790 N   0  0  0  0  0  0  0  0  0  0  0  0
   12.7053    1.7320  -18.6174 C   0  0  0  0  0  0  0  0  0  0  0  0
   11.9191    0.6111  -18.4015 C   0  0  0  0  0  0  0  0  0  0  0  0
   10.6966    0.6378  -17.5739 C   0  0  0  0  0  0  0  0  0  0  0  0
   12.2458   -0.6275  -18.9656 C   0  0  0  0  0  0  0  0  0  0  0  0
   13.3577   -0.7460  -19.7456 C   0  0  0  0  0  0  0  0  0  0  0  0
   14.1245    0.3635  -19.9515 C   0  0  0  0  0  0  0  0  0  0  0  0
   13.7961    1.5244  -19.4078 N   0  0  0  0  0  0  0  0  0  0  0  0
   14.4340    2.3401  -19.6090 H   0  0  0  0  0  0  0  0  0  0  0  0
  7  8  1  0  0  0
  8  9  1  0  0  0
  9 10  2  0  0  0
 10  1  1  0  0  0
  1  2  1  0  0  0
  2  3  1  0  0  0
  3  4  1  0  0  0
  4 17  1  0  0  0
 17 18  1  0  0  0
 18 19  2  0  0  0
 18 20  1  0  0  0
 20 21  2  0  0  0
 21 22  1  0  0  0
 22 23  1  0  0  0
 22 24  2  0  0  0
 24 25  1  0  0  0
 25 26  2  0  0  0
 26 27  1  0  0  0
 27 28  1  0  0  0
  4  5  1  0  0  0
  5  6  1  0  0  0
  9 11  1  0  0  0
 11 12  1  0  0  0
 12 13  1  0  0  0
 13 14  1  0  0  0
 13 15  2  0  0  0
 15 16  1  0  0  0
  6  1  1  0  0  0
 16 11  2  0  0  0
 27 21  1  0  0  0
M  END
> <minimizedAffinity>
-8.17032

$$$$
8_0


 28 30  0  0  0  0  0  0  0  0999 V2000
   10.9009    4.6188  -13.7101 C   0  0  0  0  0  0  0  0  0  0  0  0
    9.3929    4.8211  -13.7499 C   0  0  0  0  0  0  0  0  0  0  0  0
    8.6983    3.5898  -14.2733 C   0  0  0  0  0  0  0  0  0  0  0  0
    9.0044    3.3180  -15.6718 N   0  0  0  0  0  0  0  0  0  0  0  0
   10.3972    3.6317  -15.9314 C   0  0  0  0  0  0  0  0  0  0  0  0
   11.1833    3.4430  -14.6589 C   0  0  0  0  0  0  0  0  0  0  0  0
   12.8592    7.5688  -15.4400 H   0  0  0  0  0  0  0  0  0  0  0  0
   12.6441    7.7464  -14.4604 O   0  0  0  0  0  0  0  0  0  0  0  0
   11.9113    6.8338  -13.6915 C   0  0  0  0  0  0  0  0  0  0  0  0
   11.6210    5.7278  -14.2267 N   0  0  0  0  0  0  0  0  0  0  0  0
   11.5376    7.2304  -12.3268 C   0  0  0  0  0  0  0  0  0  0  0  0
   12.3065    7.4297  -11.2891 O   0  0  0  0  0  0  0  0  0  0  0  0
   11.6219    7.7763  -10.2267 C   0  0  0  0  0  0  0  0  0  0  0  0
   12.1827    8.0813   -8.8651 C   0  0  0  0  0  0  0  0  0  0  0  0
   10.2798    7.8211  -10.5499 C   0  0  0  0  0  0  0  0  0  0  0  0
   10.2327    7.4713  -11.8931 C   0  0  0  0  0  0  0  0  0  0  0  0
    8.6637    1.9440  -15.9902 C   0  0  0  0  0  0  0  0  0  0  0  0
    8.3996    1.0981  -14.8058 C   0  0  0  0  0  0  0  0  0  0  0  0
    9.3253    0.4218  -14.2268 O   0  0  0  0  0  0  0  0  0  0  0  0
    7.1276    1.0162  -14.2841 N   0  0  0  0  0  0  0  0  0  0  0  0
    6.0535    0.4929  -14.6028 C   0  0  0  0  0  0  0  0  0  0  0  0
    5.7777   -0.2663  -15.7292 C   0  0  0  0  0  0  0  0  0  0  0  0
    6.7931   -0.5733  -16.7563 C   0  0  0  0  0  0  0  0  0  0  0  0
    4.5012   -0.7926  -15.9583 C   0  0  0  0  0  0  0  0  0  0  0  0
    3.5004   -0.5605  -15.0620 C   0  0  0  0  0  0  0  0  0  0  0  0
    3.7827    0.1880  -13.9569 C   0  0  0  0  0  0  0  0  0  0  0  0
    4.9973    0.6756  -13.7610 N   0  0  0  0  0  0  0  0  0  0  0  0
    5.1446    1.2453  -12.8856 H   0  0  0  0  0  0  0  0  0  0  0  0
  7  8  1  0  0  0
  8  9  1  0  0  0
  9 10  2  0  0  0
 10  1  1  0  0  0
  1  2  1  0  0  0
  2  3  1  0  0  0
  3  4  1  0  0  0
  4 17  1  0  0  0
 17 18  1  0  0  0
 18 19  2  0  0  0
 18 20  1  0  0  0
 20 21  2  0  0  0
 21 22  1  0  0  0
 22 23  1  0  0  0
 22 24  2  0  0  0
 24 25  1  0  0  0
 25 26  2  0  0  0
 26 27  1  0  0  0
 27 28  1  0  0  0
  4  5  1  0  0  0
  5  6  1  0  0  0
  9 11  1  0  0  0
 11 12  1  0  0  0
 12 13  1  0  0  0
 13 14  1  0  0  0
 13 15  2  0  0  0
 15 16  1  0  0  0
  6  1  1  0  0  0
 16 11  2  0  0  0
 27 21  1  0  0  0
M  END
> <minimizedAffinity>
-8.13733

$$$$
8_0


 28 30  0  0  0  0  0  0  0  0999 V2000
   11.4196    4.9305  -16.4512 C   0  0  0  0  0  0  0  0  0  0  0  0
   12.0837    3.5945  -16.1493 C   0  0  0  0  0  0  0  0  0  0  0  0
   11.1343    2.4517  -16.4048 C   0  0  0  0  0  0  0  0  0  0  0  0
   10.0013    2.4407  -15.4886 N   0  0  0  0  0  0  0  0  0  0  0  0
    9.5743    3.8035  -15.2316 C   0  0  0  0  0  0  0  0  0  0  0  0
    9.9082    4.6521  -16.4322 C   0  0  0  0  0  0  0  0  0  0  0  0
   11.8986    7.4524  -13.4611 H   0  0  0  0  0  0  0  0  0  0  0  0
   12.5026    7.6502  -14.2570 O   0  0  0  0  0  0  0  0  0  0  0  0
   12.5094    6.8343  -15.3952 C   0  0  0  0  0  0  0  0  0  0  0  0
   11.6566    5.9049  -15.4463 N   0  0  0  0  0  0  0  0  0  0  0  0
   13.5038    7.1204  -16.4388 C   0  0  0  0  0  0  0  0  0  0  0  0
   13.5540    8.1251  -17.2729 O   0  0  0  0  0  0  0  0  0  0  0  0
   14.5915    8.0532  -18.0703 C   0  0  0  0  0  0  0  0  0  0  0  0
   14.9578    9.0366  -19.1475 C   0  0  0  0  0  0  0  0  0  0  0  0
   15.3147    6.9160  -17.7681 C   0  0  0  0  0  0  0  0  0  0  0  0
   14.6143    6.3244  -16.7248 C   0  0  0  0  0  0  0  0  0  0  0  0
    8.9431    1.6070  -16.0274 C   0  0  0  0  0  0  0  0  0  0  0  0
    8.5810    0.4602  -15.1661 C   0  0  0  0  0  0  0  0  0  0  0  0
    9.3086    0.0922  -14.1738 O   0  0  0  0  0  0  0  0  0  0  0  0
    7.4291   -0.2534  -15.4126 N   0  0  0  0  0  0  0  0  0  0  0  0
    6.2479   -0.2142  -15.0485 C   0  0  0  0  0  0  0  0  0  0  0  0
    5.6579    0.6788  -14.1680 C   0  0  0  0  0  0  0  0  0  0  0  0
    6.4063    1.7704  -13.5131 C   0  0  0  0  0  0  0  0  0  0  0  0
    4.2984    0.5940  -13.8462 C   0  0  0  0  0  0  0  0  0  0  0  0
    3.5285   -0.3828  -14.4046 C   0  0  0  0  0  0  0  0  0  0  0  0
    4.1193   -1.2566  -15.2699 C   0  0  0  0  0  0  0  0  0  0  0  0
    5.4069   -1.1571  -15.5593 N   0  0  0  0  0  0  0  0  0  0  0  0
    5.7973   -1.8660  -16.2359 H   0  0  0  0  0  0  0  0  0  0  0  0
  7  8  1  0  0  0
  8  9  1  0  0  0
  9 10  2  0  0  0
 10  1  1  0  0  0
  1  2  1  0  0  0
  2  3  1  0  0  0
  3  4  1  0  0  0
  4 17  1  0  0  0
 17 18  1  0  0  0
 18 19  2  0  0  0
 18 20  1  0  0  0
 20 21  2  0  0  0
 21 22  1  0  0  0
 22 23  1  0  0  0
 22 24  2  0  0  0
 24 25  1  0  0  0
 25 26  2  0  0  0
 26 27  1  0  0  0
 27 28  1  0  0  0
  4  5  1  0  0  0
  5  6  1  0  0  0
  9 11  1  0  0  0
 11 12  1  0  0  0
 12 13  1  0  0  0
 13 14  1  0  0  0
 13 15  2  0  0  0
 15 16  1  0  0  0
  6  1  1  0  0  0
 16 11  2  0  0  0
 27 21  1  0  0  0
M  END
> <minimizedAffinity>
-7.78927

$$$$
