8_1


 30 32  0  0  0  0  0  0  0  0999 V2000
    8.1438    4.4972  -12.6679 C   0  0  0  0  0  0  0  0  0  0  0  0
    6.8610    4.2059  -12.1775 C   0  0  0  0  0  0  0  0  0  0  0  0
    6.0313    3.3581  -12.7611 N   0  0  0  0  0  0  0  0  0  0  0  0
    6.4038    2.7274  -13.8805 C   0  0  0  0  0  0  0  0  0  0  0  0
    7.6226    2.9774  -14.3824 N   0  0  0  0  0  0  0  0  0  0  0  0
    8.5098    3.8462  -13.8096 C   0  0  0  0  0  0  0  0  0  0  0  0
    9.5556    5.9767   -8.2192 C   0  0  0  0  0  0  0  0  0  0  0  0
    9.5914    6.1741   -9.7089 C   0  0  0  0  0  0  0  0  0  0  0  0
    8.9126    5.3061  -10.5286 C   0  0  0  0  0  0  0  0  0  0  0  0
    8.9140    5.4463  -11.9265 C   0  0  0  0  0  0  0  0  0  0  0  0
    9.6339    6.5019  -12.4134 C   0  0  0  0  0  0  0  0  0  0  0  0
   10.3189    7.3774  -11.5895 C   0  0  0  0  0  0  0  0  0  0  0  0
   10.3105    7.2305  -10.2274 C   0  0  0  0  0  0  0  0  0  0  0  0
   11.0465    8.1719   -9.3493 C   0  0  0  0  0  0  0  0  0  0  0  0
   11.8361    7.4446   -8.4575 F   0  0  0  0  0  0  0  0  0  0  0  0
   10.1731    8.9880   -8.6386 F   0  0  0  0  0  0  0  0  0  0  0  0
   11.8973    8.9297  -10.1272 F   0  0  0  0  0  0  0  0  0  0  0  0
    9.7516    3.9734  -14.4729 N   0  0  0  0  0  0  0  0  0  0  0  0
   11.0241    3.5337  -14.0196 C   0  0  0  0  0  0  0  0  0  0  0  0
   12.1612    4.4881  -14.2623 C   0  0  0  0  0  0  0  0  0  0  0  0
   11.9926    5.3082  -15.4823 C   0  0  0  0  0  0  0  0  0  0  0  0
   11.0756    4.5777  -16.4414 C   0  0  0  0  0  0  0  0  0  0  0  0
    9.7042    4.6387  -15.7843 C   0  0  0  0  0  0  0  0  0  0  0  0
   13.2324    5.7828  -16.1543 C   0  0  0  0  0  0  0  0  0  0  0  0
   13.1907    7.3890  -16.8107 S   0  0  0  0  0  0  0  0  0  0  0  0
   11.9081    7.6596  -17.9147 N   0  0  0  0  0  0  0  0  0  0  0  0
   12.9387    8.3357  -15.6422 O   0  0  0  0  0  0  0  0  0  0  0  0
   14.4607    7.8573  -17.4277 O   0  0  0  0  0  0  0  0  0  0  0  0
   11.2189    8.3644  -17.6076 H   0  0  0  0  0  0  0  0  0  0  0  0
   12.2804    7.8236  -18.8690 H   0  0  0  0  0  0  0  0  0  0  0  0
  7  8  1  0  0  0
  8  9  2  0  0  0
  9 10  1  0  0  0
 10  1  1  0  0  0
  1  2  2  0  0  0
  2  3  1  0  0  0
  3  4  2  0  0  0
  4  5  1  0  0  0
  5  6  2  0  0  0
  6 18  1  0  0  0
 18 19  1  0  0  0
 19 20  1  0  0  0
 20 21  1  0  0  0
 21 24  1  0  0  0
 24 25  1  0  0  0
 25 26  1  0  0  0
 25 27  2  0  0  0
 25 28  2  0  0  0
 21 22  1  0  0  0
 22 23  1  0  0  0
 10 11  2  0  0  0
 11 12  1  0  0  0
 12 13  2  0  0  0
 13 14  1  0  0  0
 14 15  1  0  0  0
 14 16  1  0  0  0
 14 17  1  0  0  0
 13  8  1  0  0  0
  6  1  1  0  0  0
 23 18  1  0  0  0
 26 29  1  0  0  0
 26 30  1  0  0  0
M  END
> <minimizedAffinity>
-9.10012

$$$$
8_1


 30 32  0  0  0  0  0  0  0  0999 V2000
    7.8654    4.9422  -12.2608 C   0  0  0  0  0  0  0  0  0  0  0  0
    6.6331    4.9616  -11.5883 C   0  0  0  0  0  0  0  0  0  0  0  0
    5.5804    4.2603  -11.9727 N   0  0  0  0  0  0  0  0  0  0  0  0
    5.6607    3.4804  -13.0566 C   0  0  0  0  0  0  0  0  0  0  0  0
    6.8212    3.4330  -13.7282 N   0  0  0  0  0  0  0  0  0  0  0  0
    7.9323    4.1421  -13.3638 C   0  0  0  0  0  0  0  0  0  0  0  0
   10.1125    6.4918   -8.1961 C   0  0  0  0  0  0  0  0  0  0  0  0
    9.9949    6.5357   -9.6940 C   0  0  0  0  0  0  0  0  0  0  0  0
    9.0531    5.7625  -10.3274 C   0  0  0  0  0  0  0  0  0  0  0  0
    8.9023    5.7670  -11.7242 C   0  0  0  0  0  0  0  0  0  0  0  0
    9.7535    6.5906  -12.4074 C   0  0  0  0  0  0  0  0  0  0  0  0
   10.7035    7.3702  -11.7714 C   0  0  0  0  0  0  0  0  0  0  0  0
   10.8414    7.3573  -10.4084 C   0  0  0  0  0  0  0  0  0  0  0  0
   11.8614    8.1949   -9.7322 C   0  0  0  0  0  0  0  0  0  0  0  0
   12.8588    8.5314  -10.6485 F   0  0  0  0  0  0  0  0  0  0  0  0
   12.4281    7.5275   -8.6519 F   0  0  0  0  0  0  0  0  0  0  0  0
   11.2674    9.3704   -9.3215 F   0  0  0  0  0  0  0  0  0  0  0  0
    9.0683    3.9576  -14.1846 N   0  0  0  0  0  0  0  0  0  0  0  0
    9.4107    4.6741  -15.3625 C   0  0  0  0  0  0  0  0  0  0  0  0
    9.9509    3.8400  -16.4916 C   0  0  0  0  0  0  0  0  0  0  0  0
   10.7057    2.6509  -16.0378 C   0  0  0  0  0  0  0  0  0  0  0  0
   11.2324    2.9082  -14.6411 C   0  0  0  0  0  0  0  0  0  0  0  0
    9.9949    2.8985  -13.7553 C   0  0  0  0  0  0  0  0  0  0  0  0
   11.7678    2.1379  -16.9447 C   0  0  0  0  0  0  0  0  0  0  0  0
   11.3123    0.8568  -18.0234 S   0  0  0  0  0  0  0  0  0  0  0  0
   10.4024   -0.3915  -17.2810 N   0  0  0  0  0  0  0  0  0  0  0  0
   10.3933    1.4714  -19.0736 O   0  0  0  0  0  0  0  0  0  0  0  0
   12.4295    0.2437  -18.7907 O   0  0  0  0  0  0  0  0  0  0  0  0
    9.4405   -0.4942  -17.6419 H   0  0  0  0  0  0  0  0  0  0  0  0
   10.9439   -1.2763  -17.2693 H   0  0  0  0  0  0  0  0  0  0  0  0
  7  8  1  0  0  0
  8  9  2  0  0  0
  9 10  1  0  0  0
 10  1  1  0  0  0
  1  2  2  0  0  0
  2  3  1  0  0  0
  3  4  2  0  0  0
  4  5  1  0  0  0
  5  6  2  0  0  0
  6 18  1  0  0  0
 18 19  1  0  0  0
 19 20  1  0  0  0
 20 21  1  0  0  0
 21 24  1  0  0  0
 24 25  1  0  0  0
 25 26  1  0  0  0
 25 27  2  0  0  0
 25 28  2  0  0  0
 21 22  1  0  0  0
 22 23  1  0  0  0
 10 11  2  0  0  0
 11 12  1  0  0  0
 12 13  2  0  0  0
 13 14  1  0  0  0
 14 15  1  0  0  0
 14 16  1  0  0  0
 14 17  1  0  0  0
 13  8  1  0  0  0
  6  1  1  0  0  0
 23 18  1  0  0  0
 26 29  1  0  0  0
 26 30  1  0  0  0
M  END
> <minimizedAffinity>
-8.33312

$$$$
8_1


 30 32  0  0  0  0  0  0  0  0999 V2000
    8.3777    5.0394  -11.5991 C   0  0  0  0  0  0  0  0  0  0  0  0
    7.0301    4.6916  -11.4146 C   0  0  0  0  0  0  0  0  0  0  0  0
    6.2693    4.1853  -12.3699 N   0  0  0  0  0  0  0  0  0  0  0  0
    6.7807    3.9810  -13.5890 C   0  0  0  0  0  0  0  0  0  0  0  0
    8.0655    4.2998  -13.8073 N   0  0  0  0  0  0  0  0  0  0  0  0
    8.8853    4.8250  -12.8471 C   0  0  0  0  0  0  0  0  0  0  0  0
   10.9373    8.8334   -9.8592 C   0  0  0  0  0  0  0  0  0  0  0  0
   10.3414    7.4730   -9.6281 C   0  0  0  0  0  0  0  0  0  0  0  0
    9.6365    6.8572  -10.6330 C   0  0  0  0  0  0  0  0  0  0  0  0
    9.0598    5.5867  -10.4683 C   0  0  0  0  0  0  0  0  0  0  0  0
    9.2479    5.0071   -9.2442 C   0  0  0  0  0  0  0  0  0  0  0  0
    9.9574    5.6258   -8.2300 C   0  0  0  0  0  0  0  0  0  0  0  0
   10.5150    6.8653   -8.4023 C   0  0  0  0  0  0  0  0  0  0  0  0
   11.2743    7.5236   -7.3118 C   0  0  0  0  0  0  0  0  0  0  0  0
   10.5278    8.5926   -6.8142 F   0  0  0  0  0  0  0  0  0  0  0  0
   12.5064    7.9859   -7.7615 F   0  0  0  0  0  0  0  0  0  0  0  0
   11.4390    6.6223   -6.2804 F   0  0  0  0  0  0  0  0  0  0  0  0
   10.2125    5.0873  -13.2570 N   0  0  0  0  0  0  0  0  0  0  0  0
   10.9467    6.2925  -13.0938 C   0  0  0  0  0  0  0  0  0  0  0  0
   11.7752    6.7092  -14.2780 C   0  0  0  0  0  0  0  0  0  0  0  0
   12.2864    5.5691  -15.0707 C   0  0  0  0  0  0  0  0  0  0  0  0
   12.3543    4.3449  -14.1813 C   0  0  0  0  0  0  0  0  0  0  0  0
   10.9006    3.9729  -13.9270 C   0  0  0  0  0  0  0  0  0  0  0  0
   13.5547    5.7811  -15.8193 C   0  0  0  0  0  0  0  0  0  0  0  0
   13.4470    6.7221  -17.2737 S   0  0  0  0  0  0  0  0  0  0  0  0
   13.0800    8.3755  -17.0106 N   0  0  0  0  0  0  0  0  0  0  0  0
   14.8303    6.7014  -17.9150 O   0  0  0  0  0  0  0  0  0  0  0  0
   12.5258    6.1862  -18.3115 O   0  0  0  0  0  0  0  0  0  0  0  0
   13.8227    9.0314  -17.3007 H   0  0  0  0  0  0  0  0  0  0  0  0
   12.1437    8.6040  -17.3946 H   0  0  0  0  0  0  0  0  0  0  0  0
  7  8  1  0  0  0
  8  9  2  0  0  0
  9 10  1  0  0  0
 10  1  1  0  0  0
  1  2  2  0  0  0
  2  3  1  0  0  0
  3  4  2  0  0  0
  4  5  1  0  0  0
  5  6  2  0  0  0
  6 18  1  0  0  0
 18 19  1  0  0  0
 19 20  1  0  0  0
 20 21  1  0  0  0
 21 24  1  0  0  0
 24 25  1  0  0  0
 25 26  1  0  0  0
 25 27  2  0  0  0
 25 28  2  0  0  0
 21 22  1  0  0  0
 22 23  1  0  0  0
 10 11  2  0  0  0
 11 12  1  0  0  0
 12 13  2  0  0  0
 13 14  1  0  0  0
 14 15  1  0  0  0
 14 16  1  0  0  0
 14 17  1  0  0  0
 13  8  1  0  0  0
  6  1  1  0  0  0
 23 18  1  0  0  0
 26 29  1  0  0  0
 26 30  1  0  0  0
M  END
> <minimizedAffinity>
-7.45422

$$$$
8_1


 30 32  0  0  0  0  0  0  0  0999 V2000
    8.4547    5.4989  -11.8415 C   0  0  0  0  0  0  0  0  0  0  0  0
    7.1189    5.2437  -11.4928 C   0  0  0  0  0  0  0  0  0  0  0  0
    6.3284    4.4326  -12.1747 N   0  0  0  0  0  0  0  0  0  0  0  0
    6.7960    3.8058  -13.2602 C   0  0  0  0  0  0  0  0  0  0  0  0
    8.0680    4.0221  -13.6277 N   0  0  0  0  0  0  0  0  0  0  0  0
    8.9174    4.8525  -12.9502 C   0  0  0  0  0  0  0  0  0  0  0  0
   10.5699    6.1923   -7.4805 C   0  0  0  0  0  0  0  0  0  0  0  0
   10.2040    6.7407   -8.8314 C   0  0  0  0  0  0  0  0  0  0  0  0
    9.5374    5.9469   -9.7323 C   0  0  0  0  0  0  0  0  0  0  0  0
    9.1726    6.4110  -11.0072 C   0  0  0  0  0  0  0  0  0  0  0  0
    9.5246    7.7020  -11.2887 C   0  0  0  0  0  0  0  0  0  0  0  0
   10.1966    8.5035  -10.3827 C   0  0  0  0  0  0  0  0  0  0  0  0
   10.5475    8.0397   -9.1422 C   0  0  0  0  0  0  0  0  0  0  0  0
   11.2676    8.9032   -8.1754 C   0  0  0  0  0  0  0  0  0  0  0  0
   12.5766    8.4404   -8.0342 F   0  0  0  0  0  0  0  0  0  0  0  0
   10.6390    8.9065   -6.9349 F   0  0  0  0  0  0  0  0  0  0  0  0
   11.3371   10.1814   -8.6898 F   0  0  0  0  0  0  0  0  0  0  0  0
   10.2253    4.9477  -13.4781 N   0  0  0  0  0  0  0  0  0  0  0  0
   11.0630    6.0944  -13.5139 C   0  0  0  0  0  0  0  0  0  0  0  0
   11.8272    6.2960  -14.7937 C   0  0  0  0  0  0  0  0  0  0  0  0
   12.1834    5.0309  -15.4735 C   0  0  0  0  0  0  0  0  0  0  0  0
   12.2232    3.9173  -14.4474 C   0  0  0  0  0  0  0  0  0  0  0  0
   10.7689    3.7066  -14.0516 C   0  0  0  0  0  0  0  0  0  0  0  0
   13.4024    5.0419  -16.3266 C   0  0  0  0  0  0  0  0  0  0  0  0
   13.3074    4.1686  -17.8236 S   0  0  0  0  0  0  0  0  0  0  0  0
   12.5679    5.0444  -19.0977 N   0  0  0  0  0  0  0  0  0  0  0  0
   14.7410    3.9112  -18.2748 O   0  0  0  0  0  0  0  0  0  0  0  0
   12.6764    2.8244  -17.7370 O   0  0  0  0  0  0  0  0  0  0  0  0
   13.1899    5.2475  -19.8964 H   0  0  0  0  0  0  0  0  0  0  0  0
   11.6688    4.6022  -19.3668 H   0  0  0  0  0  0  0  0  0  0  0  0
  7  8  1  0  0  0
  8  9  2  0  0  0
  9 10  1  0  0  0
 10  1  1  0  0  0
  1  2  2  0  0  0
  2  3  1  0  0  0
  3  4  2  0  0  0
  4  5  1  0  0  0
  5  6  2  0  0  0
  6 18  1  0  0  0
 18 19  1  0  0  0
 19 20  1  0  0  0
 20 21  1  0  0  0
 21 24  1  0  0  0
 24 25  1  0  0  0
 25 26  1  0  0  0
 25 27  2  0  0  0
 25 28  2  0  0  0
 21 22  1  0  0  0
 22 23  1  0  0  0
 10 11  2  0  0  0
 11 12  1  0  0  0
 12 13  2  0  0  0
 13 14  1  0  0  0
 14 15  1  0  0  0
 14 16  1  0  0  0
 14 17  1  0  0  0
 13  8  1  0  0  0
  6  1  1  0  0  0
 23 18  1  0  0  0
 26 29  1  0  0  0
 26 30  1  0  0  0
M  END
> <minimizedAffinity>
-7.28191

$$$$
8_1


 30 32  0  0  0  0  0  0  0  0999 V2000
   11.2901    6.1742  -13.3982 C   0  0  0  0  0  0  0  0  0  0  0  0
   11.4227    7.2163  -12.4668 C   0  0  0  0  0  0  0  0  0  0  0  0
   10.6714    7.3287  -11.3849 N   0  0  0  0  0  0  0  0  0  0  0  0
    9.7250    6.4169  -11.1350 C   0  0  0  0  0  0  0  0  0  0  0  0
    9.5656    5.4041  -12.0003 N   0  0  0  0  0  0  0  0  0  0  0  0
   10.3214    5.2519  -13.1298 C   0  0  0  0  0  0  0  0  0  0  0  0
   13.5733    8.9951  -16.6849 C   0  0  0  0  0  0  0  0  0  0  0  0
   13.2850    7.6185  -16.1545 C   0  0  0  0  0  0  0  0  0  0  0  0
   12.4730    7.4662  -15.0575 C   0  0  0  0  0  0  0  0  0  0  0  0
   12.1723    6.2024  -14.5226 C   0  0  0  0  0  0  0  0  0  0  0  0
   12.7406    5.1383  -15.1665 C   0  0  0  0  0  0  0  0  0  0  0  0
   13.5594    5.2893  -16.2717 C   0  0  0  0  0  0  0  0  0  0  0  0
   13.8457    6.5271  -16.7843 C   0  0  0  0  0  0  0  0  0  0  0  0
   14.7240    6.6829  -17.9690 C   0  0  0  0  0  0  0  0  0  0  0  0
   15.9024    7.3241  -17.5847 F   0  0  0  0  0  0  0  0  0  0  0  0
   14.0981    7.4197  -18.9686 F   0  0  0  0  0  0  0  0  0  0  0  0
   15.0700    5.4301  -18.4313 F   0  0  0  0  0  0  0  0  0  0  0  0
   10.0184    4.1171  -13.9165 N   0  0  0  0  0  0  0  0  0  0  0  0
   10.5132    2.7952  -13.7555 C   0  0  0  0  0  0  0  0  0  0  0  0
   10.8847    2.0854  -15.0286 C   0  0  0  0  0  0  0  0  0  0  0  0
   10.0628    2.4898  -16.1908 C   0  0  0  0  0  0  0  0  0  0  0  0
    8.7358    3.0226  -15.6912 C   0  0  0  0  0  0  0  0  0  0  0  0
    9.0791    4.3472  -15.0252 C   0  0  0  0  0  0  0  0  0  0  0  0
    9.8842    1.4859  -17.2743 C   0  0  0  0  0  0  0  0  0  0  0  0
   10.7798    1.7571  -18.7361 S   0  0  0  0  0  0  0  0  0  0  0  0
   11.3594    0.3242  -19.4764 N   0  0  0  0  0  0  0  0  0  0  0  0
    9.8116    2.3785  -19.7369 O   0  0  0  0  0  0  0  0  0  0  0  0
   11.9027    2.7262  -18.6237 O   0  0  0  0  0  0  0  0  0  0  0  0
   10.9634    0.1334  -20.4107 H   0  0  0  0  0  0  0  0  0  0  0  0
   12.3960    0.2943  -19.4450 H   0  0  0  0  0  0  0  0  0  0  0  0
  7  8  1  0  0  0
  8  9  2  0  0  0
  9 10  1  0  0  0
 10  1  1  0  0  0
  1  2  2  0  0  0
  2  3  1  0  0  0
  3  4  2  0  0  0
  4  5  1  0  0  0
  5  6  2  0  0  0
  6 18  1  0  0  0
 18 19  1  0  0  0
 19 20  1  0  0  0
 20 21  1  0  0  0
 21 24  1  0  0  0
 24 25  1  0  0  0
 25 26  1  0  0  0
 25 27  2  0  0  0
 25 28  2  0  0  0
 21 22  1  0  0  0
 22 23  1  0  0  0
 10 11  2  0  0  0
 11 12  1  0  0  0
 12 13  2  0  0  0
 13 14  1  0  0  0
 14 15  1  0  0  0
 14 16  1  0  0  0
 14 17  1  0  0  0
 13  8  1  0  0  0
  6  1  1  0  0  0
 23 18  1  0  0  0
 26 29  1  0  0  0
 26 30  1  0  0  0
M  END
> <minimizedAffinity>
-6.27769

$$$$
