7_0


 32 36  0  0  0  0  0  0  0  0999 V2000
    6.1612    3.6031  -12.3229 C   0  0  0  0  0  0  0  0  0  0  0  0
    6.8992    4.3458  -11.4770 N   0  0  0  0  0  0  0  0  0  0  0  0
    8.0592    4.6791  -12.0323 N   0  0  0  0  0  0  0  0  0  0  0  0
    9.1066    5.4117  -11.5581 C   0  0  0  0  0  0  0  0  0  0  0  0
    8.9920    5.8781  -10.3746 N   0  0  0  0  0  0  0  0  0  0  0  0
   10.1881    5.6031  -12.3461 N   0  0  0  0  0  0  0  0  0  0  0  0
   10.2336    5.0698  -13.6028 C   0  0  0  0  0  0  0  0  0  0  0  0
    9.1837    4.3354  -14.0781 N   0  0  0  0  0  0  0  0  0  0  0  0
    9.2550    3.9438  -15.0439 H   0  0  0  0  0  0  0  0  0  0  0  0
    8.1106    4.1491  -13.2884 C   0  0  0  0  0  0  0  0  0  0  0  0
    6.9219    3.4720  -13.4774 C   0  0  0  0  0  0  0  0  0  0  0  0
    6.5183    2.7260  -14.7085 C   0  0  0  0  0  0  0  0  0  0  0  0
   11.3849    5.3082  -14.3603 N   0  0  0  0  0  0  0  0  0  0  0  0
   11.9401    4.4706  -15.1888 C   0  0  0  0  0  0  0  0  0  0  0  0
   11.4435    3.1594  -15.4494 C   0  0  0  0  0  0  0  0  0  0  0  0
   10.6838    2.2927  -14.6522 C   0  0  0  0  0  0  0  0  0  0  0  0
   10.3014    1.0533  -15.1144 C   0  0  0  0  0  0  0  0  0  0  0  0
   10.6402    0.5954  -16.3782 C   0  0  0  0  0  0  0  0  0  0  0  0
   11.3834    1.4384  -17.1632 C   0  0  0  0  0  0  0  0  0  0  0  0
   11.7665    2.6798  -16.6995 C   0  0  0  0  0  0  0  0  0  0  0  0
   12.7185    3.9862  -17.4321 S   0  0  0  0  0  0  0  0  0  0  0  0
   13.9397    3.4710  -18.0973 O   0  0  0  0  0  0  0  0  0  0  0  0
   11.8676    4.8572  -18.2843 O   0  0  0  0  0  0  0  0  0  0  0  0
   13.1136    4.7913  -15.9245 N   0  0  0  0  0  0  0  0  0  0  0  0
   13.9397    4.3586  -15.4822 H   0  0  0  0  0  0  0  0  0  0  0  0
   13.1667    5.8030  -16.0609 H   0  0  0  0  0  0  0  0  0  0  0  0
    9.9267    6.6551   -9.6729 C   0  0  0  0  0  0  0  0  0  0  0  0
   10.6113    7.7303  -10.2027 C   0  0  0  0  0  0  0  0  0  0  0  0
   11.5208    8.4540   -9.4534 C   0  0  0  0  0  0  0  0  0  0  0  0
   11.7597    8.0969   -8.1275 C   0  0  0  0  0  0  0  0  0  0  0  0
   11.0801    7.0184   -7.5781 C   0  0  0  0  0  0  0  0  0  0  0  0
   10.1725    6.3035   -8.3414 C   0  0  0  0  0  0  0  0  0  0  0  0
  1  2  2  0  0  0
  2  3  1  0  0  0
  3  4  1  0  0  0
  4  5  2  0  0  0
  5 27  1  0  0  0
 27 28  2  0  0  0
 28 29  1  0  0  0
 29 30  2  0  0  0
 30 31  1  0  0  0
 31 32  2  0  0  0
  4  6  1  0  0  0
  6  7  2  0  0  0
  7 13  1  0  0  0
 13 14  2  0  0  0
 14 15  1  0  0  0
 15 16  2  0  0  0
 16 17  1  0  0  0
 17 18  2  0  0  0
 18 19  1  0  0  0
 19 20  2  0  0  0
 20 21  1  0  0  0
 21 22  2  0  0  0
 21 23  2  0  0  0
 21 24  1  0  0  0
 24 25  1  0  0  0
 24 26  1  0  0  0
  7  8  1  0  0  0
  8  9  1  0  0  0
  8 10  1  0  0  0
 10 11  2  0  0  0
 11 12  1  0  0  0
 11  1  1  0  0  0
 10  3  1  0  0  0
 32 27  1  0  0  0
 24 14  1  0  0  0
 20 15  1  0  0  0
M  CHG 1  24   1
M  END
> <minimizedAffinity>
-10.74068

$$$$
7_0


 32 36  0  0  0  0  0  0  0  0999 V2000
    7.9711    0.9705  -14.3826 C   0  0  0  0  0  0  0  0  0  0  0  0
    7.7636    2.2003  -13.8763 N   0  0  0  0  0  0  0  0  0  0  0  0
    8.8154    2.9825  -14.0931 N   0  0  0  0  0  0  0  0  0  0  0  0
    9.0518    4.2843  -13.7647 C   0  0  0  0  0  0  0  0  0  0  0  0
    8.1229    4.8961  -13.1370 N   0  0  0  0  0  0  0  0  0  0  0  0
   10.2300    4.8488  -14.1120 N   0  0  0  0  0  0  0  0  0  0  0  0
   11.1740    4.1255  -14.7840 C   0  0  0  0  0  0  0  0  0  0  0  0
   10.9370    2.8206  -15.1131 N   0  0  0  0  0  0  0  0  0  0  0  0
   11.6827    2.2999  -15.6269 H   0  0  0  0  0  0  0  0  0  0  0  0
    9.7623    2.2654  -14.7643 C   0  0  0  0  0  0  0  0  0  0  0  0
    9.2387    1.0010  -14.9493 C   0  0  0  0  0  0  0  0  0  0  0  0
    9.9139   -0.1407  -15.6390 C   0  0  0  0  0  0  0  0  0  0  0  0
   12.3692    4.7750  -15.1093 N   0  0  0  0  0  0  0  0  0  0  0  0
   12.5638    5.5414  -16.1442 C   0  0  0  0  0  0  0  0  0  0  0  0
   11.5640    5.8359  -17.1176 C   0  0  0  0  0  0  0  0  0  0  0  0
   10.4401    5.1052  -17.5258 C   0  0  0  0  0  0  0  0  0  0  0  0
    9.5900    5.5904  -18.4943 C   0  0  0  0  0  0  0  0  0  0  0  0
    9.7925    6.8134  -19.1146 C   0  0  0  0  0  0  0  0  0  0  0  0
   10.8904    7.5333  -18.7199 C   0  0  0  0  0  0  0  0  0  0  0  0
   11.7417    7.0466  -17.7497 C   0  0  0  0  0  0  0  0  0  0  0  0
   13.2258    7.6988  -17.0275 S   0  0  0  0  0  0  0  0  0  0  0  0
   14.1450    8.2437  -18.0559 O   0  0  0  0  0  0  0  0  0  0  0  0
   12.9149    8.6335  -15.9146 O   0  0  0  0  0  0  0  0  0  0  0  0
   13.8132    6.1680  -16.4042 N   0  0  0  0  0  0  0  0  0  0  0  0
   14.3271    5.6474  -17.1324 H   0  0  0  0  0  0  0  0  0  0  0  0
   14.3162    6.3074  -15.5252 H   0  0  0  0  0  0  0  0  0  0  0  0
    8.1302    6.2279  -12.6943 C   0  0  0  0  0  0  0  0  0  0  0  0
    9.2110    6.8559  -12.1085 C   0  0  0  0  0  0  0  0  0  0  0  0
    9.1496    8.1738  -11.6944 C   0  0  0  0  0  0  0  0  0  0  0  0
    7.9703    8.8962  -11.8685 C   0  0  0  0  0  0  0  0  0  0  0  0
    6.8734    8.2808  -12.4558 C   0  0  0  0  0  0  0  0  0  0  0  0
    6.9506    6.9602  -12.8652 C   0  0  0  0  0  0  0  0  0  0  0  0
  1  2  2  0  0  0
  2  3  1  0  0  0
  3  4  1  0  0  0
  4  5  2  0  0  0
  5 27  1  0  0  0
 27 28  2  0  0  0
 28 29  1  0  0  0
 29 30  2  0  0  0
 30 31  1  0  0  0
 31 32  2  0  0  0
  4  6  1  0  0  0
  6  7  2  0  0  0
  7 13  1  0  0  0
 13 14  2  0  0  0
 14 15  1  0  0  0
 15 16  2  0  0  0
 16 17  1  0  0  0
 17 18  2  0  0  0
 18 19  1  0  0  0
 19 20  2  0  0  0
 20 21  1  0  0  0
 21 22  2  0  0  0
 21 23  2  0  0  0
 21 24  1  0  0  0
 24 25  1  0  0  0
 24 26  1  0  0  0
  7  8  1  0  0  0
  8  9  1  0  0  0
  8 10  1  0  0  0
 10 11  2  0  0  0
 11 12  1  0  0  0
 11  1  1  0  0  0
 10  3  1  0  0  0
 32 27  1  0  0  0
 24 14  1  0  0  0
 20 15  1  0  0  0
M  CHG 1  24   1
M  END
> <minimizedAffinity>
-10.57866

$$$$
7_0


 32 36  0  0  0  0  0  0  0  0999 V2000
    8.3069    5.9764  -11.8220 C   0  0  0  0  0  0  0  0  0  0  0  0
    7.6623    4.9187  -12.3489 N   0  0  0  0  0  0  0  0  0  0  0  0
    8.4507    4.2577  -13.1895 N   0  0  0  0  0  0  0  0  0  0  0  0
    8.2301    3.1426  -13.9421 C   0  0  0  0  0  0  0  0  0  0  0  0
    7.0736    2.6082  -13.8516 N   0  0  0  0  0  0  0  0  0  0  0  0
    9.2234    2.6697  -14.7276 N   0  0  0  0  0  0  0  0  0  0  0  0
   10.4346    3.3000  -14.7687 C   0  0  0  0  0  0  0  0  0  0  0  0
   10.6557    4.4177  -14.0144 N   0  0  0  0  0  0  0  0  0  0  0  0
   11.5945    4.8721  -14.0721 H   0  0  0  0  0  0  0  0  0  0  0  0
    9.6626    4.8827  -13.2349 C   0  0  0  0  0  0  0  0  0  0  0  0
    9.5792    5.9628  -12.3785 C   0  0  0  0  0  0  0  0  0  0  0  0
   10.6661    6.9495  -12.0954 C   0  0  0  0  0  0  0  0  0  0  0  0
   11.4142    2.7546  -15.6049 N   0  0  0  0  0  0  0  0  0  0  0  0
   11.7891    3.2358  -16.7556 C   0  0  0  0  0  0  0  0  0  0  0  0
   11.2428    4.4148  -17.3431 C   0  0  0  0  0  0  0  0  0  0  0  0
    9.9855    5.0150  -17.1921 C   0  0  0  0  0  0  0  0  0  0  0  0
    9.6668    6.1756  -17.8611 C   0  0  0  0  0  0  0  0  0  0  0  0
   10.5582    6.8106  -18.7117 C   0  0  0  0  0  0  0  0  0  0  0  0
   11.7900    6.2286  -18.8640 C   0  0  0  0  0  0  0  0  0  0  0  0
   12.1086    5.0658  -18.1937 C   0  0  0  0  0  0  0  0  0  0  0  0
   13.5732    4.0637  -18.1713 S   0  0  0  0  0  0  0  0  0  0  0  0
   14.1048    3.8353  -19.5368 O   0  0  0  0  0  0  0  0  0  0  0  0
   14.5666    4.5874  -17.1978 O   0  0  0  0  0  0  0  0  0  0  0  0
   12.7968    2.6199  -17.5472 N   0  0  0  0  0  0  0  0  0  0  0  0
   12.3655    2.0753  -18.3105 H   0  0  0  0  0  0  0  0  0  0  0  0
   13.4372    2.1003  -16.9432 H   0  0  0  0  0  0  0  0  0  0  0  0
    6.6105    1.4651  -14.5213 C   0  0  0  0  0  0  0  0  0  0  0  0
    6.2153    1.4345  -15.8436 C   0  0  0  0  0  0  0  0  0  0  0  0
    5.7682    0.2708  -16.4422 C   0  0  0  0  0  0  0  0  0  0  0  0
    5.7113   -0.9076  -15.6999 C   0  0  0  0  0  0  0  0  0  0  0  0
    6.1049   -0.8954  -14.3688 C   0  0  0  0  0  0  0  0  0  0  0  0
    6.5502    0.2780  -13.7836 C   0  0  0  0  0  0  0  0  0  0  0  0
  1  2  2  0  0  0
  2  3  1  0  0  0
  3  4  1  0  0  0
  4  5  2  0  0  0
  5 27  1  0  0  0
 27 28  2  0  0  0
 28 29  1  0  0  0
 29 30  2  0  0  0
 30 31  1  0  0  0
 31 32  2  0  0  0
  4  6  1  0  0  0
  6  7  2  0  0  0
  7 13  1  0  0  0
 13 14  2  0  0  0
 14 15  1  0  0  0
 15 16  2  0  0  0
 16 17  1  0  0  0
 17 18  2  0  0  0
 18 19  1  0  0  0
 19 20  2  0  0  0
 20 21  1  0  0  0
 21 22  2  0  0  0
 21 23  2  0  0  0
 21 24  1  0  0  0
 24 25  1  0  0  0
 24 26  1  0  0  0
  7  8  1  0  0  0
  8  9  1  0  0  0
  8 10  1  0  0  0
 10 11  2  0  0  0
 11 12  1  0  0  0
 11  1  1  0  0  0
 10  3  1  0  0  0
 32 27  1  0  0  0
 24 14  1  0  0  0
 20 15  1  0  0  0
M  CHG 1  24   1
M  END
> <minimizedAffinity>
-9.94613

$$$$
7_0


 32 36  0  0  0  0  0  0  0  0999 V2000
    9.0778    5.8283  -10.3796 C   0  0  0  0  0  0  0  0  0  0  0  0
    8.3118    4.8824  -10.9542 N   0  0  0  0  0  0  0  0  0  0  0  0
    8.5833    4.7800  -12.2508 N   0  0  0  0  0  0  0  0  0  0  0  0
    8.0647    3.9711  -13.2178 C   0  0  0  0  0  0  0  0  0  0  0  0
    7.1544    3.1523  -12.8543 N   0  0  0  0  0  0  0  0  0  0  0  0
    8.5294    4.0740  -14.4831 N   0  0  0  0  0  0  0  0  0  0  0  0
    9.5068    4.9770  -14.7915 C   0  0  0  0  0  0  0  0  0  0  0  0
   10.0266    5.7879  -13.8221 N   0  0  0  0  0  0  0  0  0  0  0  0
   10.7725    6.4658  -14.0961 H   0  0  0  0  0  0  0  0  0  0  0  0
    9.5594    5.6799  -12.5652 C   0  0  0  0  0  0  0  0  0  0  0  0
    9.8745    6.3416  -11.3947 C   0  0  0  0  0  0  0  0  0  0  0  0
   10.8950    7.4233  -11.2407 C   0  0  0  0  0  0  0  0  0  0  0  0
    9.9374    5.0281  -16.1212 N   0  0  0  0  0  0  0  0  0  0  0  0
   10.2664    4.0046  -16.8564 C   0  0  0  0  0  0  0  0  0  0  0  0
   10.2347    2.6532  -16.4019 C   0  0  0  0  0  0  0  0  0  0  0  0
   10.3633    2.1172  -15.1136 C   0  0  0  0  0  0  0  0  0  0  0  0
   10.2929    0.7589  -14.8984 C   0  0  0  0  0  0  0  0  0  0  0  0
   10.0933   -0.1465  -15.9289 C   0  0  0  0  0  0  0  0  0  0  0  0
    9.9668    0.3714  -17.1919 C   0  0  0  0  0  0  0  0  0  0  0  0
   10.0376    1.7322  -17.4068 C   0  0  0  0  0  0  0  0  0  0  0  0
    9.9283    2.7153  -18.8804 S   0  0  0  0  0  0  0  0  0  0  0  0
   10.7397    2.1458  -19.9834 O   0  0  0  0  0  0  0  0  0  0  0  0
    8.5124    2.9979  -19.2329 O   0  0  0  0  0  0  0  0  0  0  0  0
   10.6946    4.1414  -18.2052 N   0  0  0  0  0  0  0  0  0  0  0  0
   11.7225    4.0676  -18.2609 H   0  0  0  0  0  0  0  0  0  0  0  0
   10.2918    4.9903  -18.6081 H   0  0  0  0  0  0  0  0  0  0  0  0
    6.4736    2.2258  -13.6592 C   0  0  0  0  0  0  0  0  0  0  0  0
    6.7961    1.9362  -14.9698 C   0  0  0  0  0  0  0  0  0  0  0  0
    6.0813    1.0100  -15.7070 C   0  0  0  0  0  0  0  0  0  0  0  0
    5.0052    0.3457  -15.1209 C   0  0  0  0  0  0  0  0  0  0  0  0
    4.6666    0.6243  -13.8038 C   0  0  0  0  0  0  0  0  0  0  0  0
    5.3921    1.5546  -13.0787 C   0  0  0  0  0  0  0  0  0  0  0  0
  1  2  2  0  0  0
  2  3  1  0  0  0
  3  4  1  0  0  0
  4  5  2  0  0  0
  5 27  1  0  0  0
 27 28  2  0  0  0
 28 29  1  0  0  0
 29 30  2  0  0  0
 30 31  1  0  0  0
 31 32  2  0  0  0
  4  6  1  0  0  0
  6  7  2  0  0  0
  7 13  1  0  0  0
 13 14  2  0  0  0
 14 15  1  0  0  0
 15 16  2  0  0  0
 16 17  1  0  0  0
 17 18  2  0  0  0
 18 19  1  0  0  0
 19 20  2  0  0  0
 20 21  1  0  0  0
 21 22  2  0  0  0
 21 23  2  0  0  0
 21 24  1  0  0  0
 24 25  1  0  0  0
 24 26  1  0  0  0
  7  8  1  0  0  0
  8  9  1  0  0  0
  8 10  1  0  0  0
 10 11  2  0  0  0
 11 12  1  0  0  0
 11  1  1  0  0  0
 10  3  1  0  0  0
 32 27  1  0  0  0
 24 14  1  0  0  0
 20 15  1  0  0  0
M  CHG 1  24   1
M  END
> <minimizedAffinity>
-9.60056

$$$$
7_0


 32 36  0  0  0  0  0  0  0  0999 V2000
    8.6479    5.8274  -11.2612 C   0  0  0  0  0  0  0  0  0  0  0  0
    8.5389    4.7828  -12.1031 N   0  0  0  0  0  0  0  0  0  0  0  0
    9.5655    4.7480  -12.9458 N   0  0  0  0  0  0  0  0  0  0  0  0
    9.8724    3.8848  -13.9554 C   0  0  0  0  0  0  0  0  0  0  0  0
    9.0537    2.9261  -14.1600 N   0  0  0  0  0  0  0  0  0  0  0  0
   11.0013    4.0826  -14.6721 N   0  0  0  0  0  0  0  0  0  0  0  0
   11.8264    5.1341  -14.3901 C   0  0  0  0  0  0  0  0  0  0  0  0
   11.5187    5.9993  -13.3782 N   0  0  0  0  0  0  0  0  0  0  0  0
   12.1739    6.7914  -13.1923 H   0  0  0  0  0  0  0  0  0  0  0  0
   10.3937    5.7963  -12.6691 C   0  0  0  0  0  0  0  0  0  0  0  0
    9.8234    6.4783  -11.6122 C   0  0  0  0  0  0  0  0  0  0  0  0
   10.3713    7.7046  -10.9558 C   0  0  0  0  0  0  0  0  0  0  0  0
   12.9759    5.2765  -15.1741 N   0  0  0  0  0  0  0  0  0  0  0  0
   13.0069    5.6453  -16.4228 C   0  0  0  0  0  0  0  0  0  0  0  0
   11.8472    5.9643  -17.1890 C   0  0  0  0  0  0  0  0  0  0  0  0
   10.5199    5.5327  -17.0642 C   0  0  0  0  0  0  0  0  0  0  0  0
    9.5424    5.9816  -17.9239 C   0  0  0  0  0  0  0  0  0  0  0  0
    9.8094    6.8749  -18.9496 C   0  0  0  0  0  0  0  0  0  0  0  0
   11.1060    7.3012  -19.0774 C   0  0  0  0  0  0  0  0  0  0  0  0
   12.0848    6.8508  -18.2160 C   0  0  0  0  0  0  0  0  0  0  0  0
   13.8248    7.1832  -18.1076 S   0  0  0  0  0  0  0  0  0  0  0  0
   14.4793    7.1291  -19.4373 O   0  0  0  0  0  0  0  0  0  0  0  0
   14.0864    8.4267  -17.3368 O   0  0  0  0  0  0  0  0  0  0  0  0
   14.2216    5.7672  -17.1514 N   0  0  0  0  0  0  0  0  0  0  0  0
   14.3578    4.9418  -17.7558 H   0  0  0  0  0  0  0  0  0  0  0  0
   14.9885    5.9723  -16.5072 H   0  0  0  0  0  0  0  0  0  0  0  0
    9.1505    1.9183  -15.1320 C   0  0  0  0  0  0  0  0  0  0  0  0
    9.9645    0.8077  -15.0348 C   0  0  0  0  0  0  0  0  0  0  0  0
   10.0114   -0.1491  -16.0322 C   0  0  0  0  0  0  0  0  0  0  0  0
    9.2201    0.0023  -17.1695 C   0  0  0  0  0  0  0  0  0  0  0  0
    8.3954    1.1130  -17.2842 C   0  0  0  0  0  0  0  0  0  0  0  0
    8.3596    2.0625  -16.2769 C   0  0  0  0  0  0  0  0  0  0  0  0
  1  2  2  0  0  0
  2  3  1  0  0  0
  3  4  1  0  0  0
  4  5  2  0  0  0
  5 27  1  0  0  0
 27 28  2  0  0  0
 28 29  1  0  0  0
 29 30  2  0  0  0
 30 31  1  0  0  0
 31 32  2  0  0  0
  4  6  1  0  0  0
  6  7  2  0  0  0
  7 13  1  0  0  0
 13 14  2  0  0  0
 14 15  1  0  0  0
 15 16  2  0  0  0
 16 17  1  0  0  0
 17 18  2  0  0  0
 18 19  1  0  0  0
 19 20  2  0  0  0
 20 21  1  0  0  0
 21 22  2  0  0  0
 21 23  2  0  0  0
 21 24  1  0  0  0
 24 25  1  0  0  0
 24 26  1  0  0  0
  7  8  1  0  0  0
  8  9  1  0  0  0
  8 10  1  0  0  0
 10 11  2  0  0  0
 11 12  1  0  0  0
 11  1  1  0  0  0
 10  3  1  0  0  0
 32 27  1  0  0  0
 24 14  1  0  0  0
 20 15  1  0  0  0
M  CHG 1  24   1
M  END
> <minimizedAffinity>
-9.52888

$$$$
7_0


 32 36  0  0  0  0  0  0  0  0999 V2000
   10.3028    6.8450   -8.1681 C   0  0  0  0  0  0  0  0  0  0  0  0
    9.4295    6.1579   -8.9279 N   0  0  0  0  0  0  0  0  0  0  0  0
    9.7265    6.2831  -10.2168 N   0  0  0  0  0  0  0  0  0  0  0  0
    9.1305    5.7724  -11.3315 C   0  0  0  0  0  0  0  0  0  0  0  0
    8.1015    5.0386  -11.1475 N   0  0  0  0  0  0  0  0  0  0  0  0
    9.6467    6.0618  -12.5468 N   0  0  0  0  0  0  0  0  0  0  0  0
   10.7523    6.8561  -12.6594 C   0  0  0  0  0  0  0  0  0  0  0  0
   11.3496    7.3680  -11.5420 N   0  0  0  0  0  0  0  0  0  0  0  0
   12.1931    7.9712  -11.6680 H   0  0  0  0  0  0  0  0  0  0  0  0
   10.8305    7.0759  -10.3358 C   0  0  0  0  0  0  0  0  0  0  0  0
   11.1975    7.4323   -9.0531 C   0  0  0  0  0  0  0  0  0  0  0  0
   12.3557    8.2992   -8.6762 C   0  0  0  0  0  0  0  0  0  0  0  0
   11.2296    7.1133  -13.9486 N   0  0  0  0  0  0  0  0  0  0  0  0
   11.4602    6.2210  -14.8689 C   0  0  0  0  0  0  0  0  0  0  0  0
   11.2550    4.8210  -14.6913 C   0  0  0  0  0  0  0  0  0  0  0  0
   11.2772    4.0319  -13.5335 C   0  0  0  0  0  0  0  0  0  0  0  0
   11.0408    2.6766  -13.5922 C   0  0  0  0  0  0  0  0  0  0  0  0
   10.7705    2.0213  -14.7834 C   0  0  0  0  0  0  0  0  0  0  0  0
   10.7474    2.7875  -15.9199 C   0  0  0  0  0  0  0  0  0  0  0  0
   10.9845    4.1451  -15.8605 C   0  0  0  0  0  0  0  0  0  0  0  0
   11.0402    5.4031  -17.1111 S   0  0  0  0  0  0  0  0  0  0  0  0
   11.8151    4.9658  -18.2975 O   0  0  0  0  0  0  0  0  0  0  0  0
    9.6797    5.9192  -17.4137 O   0  0  0  0  0  0  0  0  0  0  0  0
   11.9458    6.5658  -16.1599 N   0  0  0  0  0  0  0  0  0  0  0  0
   12.9593    6.3799  -16.2196 H   0  0  0  0  0  0  0  0  0  0  0  0
   11.6591    7.5196  -16.3904 H   0  0  0  0  0  0  0  0  0  0  0  0
    7.3229    4.4048  -12.1282 C   0  0  0  0  0  0  0  0  0  0  0  0
    7.8254    3.6086  -13.1378 C   0  0  0  0  0  0  0  0  0  0  0  0
    6.9994    3.0132  -14.0735 C   0  0  0  0  0  0  0  0  0  0  0  0
    5.6221    3.2157  -14.0045 C   0  0  0  0  0  0  0  0  0  0  0  0
    5.0993    4.0133  -12.9959 C   0  0  0  0  0  0  0  0  0  0  0  0
    5.9395    4.6028  -12.0663 C   0  0  0  0  0  0  0  0  0  0  0  0
  1  2  2  0  0  0
  2  3  1  0  0  0
  3  4  1  0  0  0
  4  5  2  0  0  0
  5 27  1  0  0  0
 27 28  2  0  0  0
 28 29  1  0  0  0
 29 30  2  0  0  0
 30 31  1  0  0  0
 31 32  2  0  0  0
  4  6  1  0  0  0
  6  7  2  0  0  0
  7 13  1  0  0  0
 13 14  2  0  0  0
 14 15  1  0  0  0
 15 16  2  0  0  0
 16 17  1  0  0  0
 17 18  2  0  0  0
 18 19  1  0  0  0
 19 20  2  0  0  0
 20 21  1  0  0  0
 21 22  2  0  0  0
 21 23  2  0  0  0
 21 24  1  0  0  0
 24 25  1  0  0  0
 24 26  1  0  0  0
  7  8  1  0  0  0
  8  9  1  0  0  0
  8 10  1  0  0  0
 10 11  2  0  0  0
 11 12  1  0  0  0
 11  1  1  0  0  0
 10  3  1  0  0  0
 32 27  1  0  0  0
 24 14  1  0  0  0
 20 15  1  0  0  0
M  CHG 1  24   1
M  END
> <minimizedAffinity>
-9.21490

$$$$
7_0


 32 36  0  0  0  0  0  0  0  0999 V2000
   11.6726    7.6206  -10.5170 C   0  0  0  0  0  0  0  0  0  0  0  0
   10.5821    6.8820  -10.7948 N   0  0  0  0  0  0  0  0  0  0  0  0
   10.5706    6.5215  -12.0735 N   0  0  0  0  0  0  0  0  0  0  0  0
    9.6791    5.7819  -12.7921 C   0  0  0  0  0  0  0  0  0  0  0  0
    8.6607    5.3383  -12.1616 N   0  0  0  0  0  0  0  0  0  0  0  0
    9.9124    5.5604  -14.1051 N   0  0  0  0  0  0  0  0  0  0  0  0
   11.0275    6.0706  -14.7069 C   0  0  0  0  0  0  0  0  0  0  0  0
   11.9211    6.8120  -13.9865 N   0  0  0  0  0  0  0  0  0  0  0  0
   12.7619    7.1854  -14.4812 H   0  0  0  0  0  0  0  0  0  0  0  0
   11.6825    7.0284  -12.6803 C   0  0  0  0  0  0  0  0  0  0  0  0
   12.3790    7.7197  -11.7086 C   0  0  0  0  0  0  0  0  0  0  0  0
   13.6694    8.4498  -11.9000 C   0  0  0  0  0  0  0  0  0  0  0  0
   11.2024    5.8016  -16.0682 N   0  0  0  0  0  0  0  0  0  0  0  0
   11.1560    4.6253  -16.6256 C   0  0  0  0  0  0  0  0  0  0  0  0
   10.9148    3.4141  -15.9125 C   0  0  0  0  0  0  0  0  0  0  0  0
   11.1615    3.0738  -14.5757 C   0  0  0  0  0  0  0  0  0  0  0  0
   10.8371    1.8276  -14.0878 C   0  0  0  0  0  0  0  0  0  0  0  0
   10.2552    0.8493  -14.8788 C   0  0  0  0  0  0  0  0  0  0  0  0
   10.0112    1.1757  -16.1877 C   0  0  0  0  0  0  0  0  0  0  0  0
   10.3367    2.4242  -16.6760 C   0  0  0  0  0  0  0  0  0  0  0  0
   10.1717    3.1575  -18.2837 S   0  0  0  0  0  0  0  0  0  0  0  0
   10.6179    2.2366  -19.3571 O   0  0  0  0  0  0  0  0  0  0  0  0
    8.8117    3.7246  -18.4776 O   0  0  0  0  0  0  0  0  0  0  0  0
   11.3439    4.4359  -18.0220 N   0  0  0  0  0  0  0  0  0  0  0  0
   12.3018    4.1004  -18.2094 H   0  0  0  0  0  0  0  0  0  0  0  0
   11.0687    5.2835  -18.5229 H   0  0  0  0  0  0  0  0  0  0  0  0
    7.6135    4.5599  -12.6785 C   0  0  0  0  0  0  0  0  0  0  0  0
    7.7817    3.4405  -13.4686 C   0  0  0  0  0  0  0  0  0  0  0  0
    6.7030    2.7182  -13.9454 C   0  0  0  0  0  0  0  0  0  0  0  0
    5.4080    3.1225  -13.6256 C   0  0  0  0  0  0  0  0  0  0  0  0
    5.2200    4.2458  -12.8322 C   0  0  0  0  0  0  0  0  0  0  0  0
    6.3104    4.9587  -12.3624 C   0  0  0  0  0  0  0  0  0  0  0  0
  1  2  2  0  0  0
  2  3  1  0  0  0
  3  4  1  0  0  0
  4  5  2  0  0  0
  5 27  1  0  0  0
 27 28  2  0  0  0
 28 29  1  0  0  0
 29 30  2  0  0  0
 30 31  1  0  0  0
 31 32  2  0  0  0
  4  6  1  0  0  0
  6  7  2  0  0  0
  7 13  1  0  0  0
 13 14  2  0  0  0
 14 15  1  0  0  0
 15 16  2  0  0  0
 16 17  1  0  0  0
 17 18  2  0  0  0
 18 19  1  0  0  0
 19 20  2  0  0  0
 20 21  1  0  0  0
 21 22  2  0  0  0
 21 23  2  0  0  0
 21 24  1  0  0  0
 24 25  1  0  0  0
 24 26  1  0  0  0
  7  8  1  0  0  0
  8  9  1  0  0  0
  8 10  1  0  0  0
 10 11  2  0  0  0
 11 12  1  0  0  0
 11  1  1  0  0  0
 10  3  1  0  0  0
 32 27  1  0  0  0
 24 14  1  0  0  0
 20 15  1  0  0  0
M  CHG 1  24   1
M  END
> <minimizedAffinity>
-9.07370

$$$$
7_0


 32 36  0  0  0  0  0  0  0  0999 V2000
   11.4893    8.2740  -10.3320 C   0  0  0  0  0  0  0  0  0  0  0  0
   10.4222    7.5381  -10.6947 N   0  0  0  0  0  0  0  0  0  0  0  0
   10.7183    6.7563  -11.7274 N   0  0  0  0  0  0  0  0  0  0  0  0
    9.9644    5.8565  -12.4204 C   0  0  0  0  0  0  0  0  0  0  0  0
    8.7536    5.7092  -12.0416 N   0  0  0  0  0  0  0  0  0  0  0  0
   10.5233    5.1813  -13.4495 N   0  0  0  0  0  0  0  0  0  0  0  0
   11.8278    5.3962  -13.7928 C   0  0  0  0  0  0  0  0  0  0  0  0
   12.5835    6.2982  -13.0982 N   0  0  0  0  0  0  0  0  0  0  0  0
   13.5770    6.4355  -13.3901 H   0  0  0  0  0  0  0  0  0  0  0  0
   12.0207    6.9666  -12.0753 C   0  0  0  0  0  0  0  0  0  0  0  0
   12.5109    7.9185  -11.2030 C   0  0  0  0  0  0  0  0  0  0  0  0
   13.8989    8.4737  -11.1931 C   0  0  0  0  0  0  0  0  0  0  0  0
   12.3379    4.6625  -14.8688 N   0  0  0  0  0  0  0  0  0  0  0  0
   12.8935    5.1600  -15.9365 C   0  0  0  0  0  0  0  0  0  0  0  0
   13.0661    6.5565  -16.1685 C   0  0  0  0  0  0  0  0  0  0  0  0
   12.3406    7.6594  -15.6984 C   0  0  0  0  0  0  0  0  0  0  0  0
   12.6926    8.9436  -16.0489 C   0  0  0  0  0  0  0  0  0  0  0  0
   13.7706    9.2182  -16.8759 C   0  0  0  0  0  0  0  0  0  0  0  0
   14.4846    8.1437  -17.3394 C   0  0  0  0  0  0  0  0  0  0  0  0
   14.1313    6.8573  -16.9882 C   0  0  0  0  0  0  0  0  0  0  0  0
   14.8152    5.2745  -17.4085 S   0  0  0  0  0  0  0  0  0  0  0  0
   15.1124    5.1706  -18.8577 O   0  0  0  0  0  0  0  0  0  0  0  0
   15.9509    4.9266  -16.5152 O   0  0  0  0  0  0  0  0  0  0  0  0
   13.3896    4.3427  -16.9887 N   0  0  0  0  0  0  0  0  0  0  0  0
   12.7178    4.3255  -17.7721 H   0  0  0  0  0  0  0  0  0  0  0  0
   13.6550    3.4284  -16.6163 H   0  0  0  0  0  0  0  0  0  0  0  0
    7.7891    4.8508  -12.5917 C   0  0  0  0  0  0  0  0  0  0  0  0
    6.4245    5.0319  -12.4879 C   0  0  0  0  0  0  0  0  0  0  0  0
    5.5280    4.1449  -13.0554 C   0  0  0  0  0  0  0  0  0  0  0  0
    6.0042    3.0359  -13.7526 C   0  0  0  0  0  0  0  0  0  0  0  0
    7.3734    2.8380  -13.8670 C   0  0  0  0  0  0  0  0  0  0  0  0
    8.2584    3.7351  -13.2931 C   0  0  0  0  0  0  0  0  0  0  0  0
  1  2  2  0  0  0
  2  3  1  0  0  0
  3  4  1  0  0  0
  4  5  2  0  0  0
  5 27  1  0  0  0
 27 28  2  0  0  0
 28 29  1  0  0  0
 29 30  2  0  0  0
 30 31  1  0  0  0
 31 32  2  0  0  0
  4  6  1  0  0  0
  6  7  2  0  0  0
  7 13  1  0  0  0
 13 14  2  0  0  0
 14 15  1  0  0  0
 15 16  2  0  0  0
 16 17  1  0  0  0
 17 18  2  0  0  0
 18 19  1  0  0  0
 19 20  2  0  0  0
 20 21  1  0  0  0
 21 22  2  0  0  0
 21 23  2  0  0  0
 21 24  1  0  0  0
 24 25  1  0  0  0
 24 26  1  0  0  0
  7  8  1  0  0  0
  8  9  1  0  0  0
  8 10  1  0  0  0
 10 11  2  0  0  0
 11 12  1  0  0  0
 11  1  1  0  0  0
 10  3  1  0  0  0
 32 27  1  0  0  0
 24 14  1  0  0  0
 20 15  1  0  0  0
M  CHG 1  24   1
M  END
> <minimizedAffinity>
-8.91593

$$$$
