7_1


 27 29  0  0  0  0  0  0  0  0999 V2000
   12.9560    8.4998  -10.2702 O   0  0  0  0  0  0  0  0  0  0  0  0
   11.9416    8.1816   -9.3828 C   0  0  0  0  0  0  0  0  0  0  0  0
   11.8080    8.6974   -8.0079 C   0  0  0  0  0  0  0  0  0  0  0  0
   12.5515    9.4924   -7.3920 O   0  0  0  0  0  0  0  0  0  0  0  0
   10.6127    8.0666   -7.5383 N   0  0  0  0  0  0  0  0  0  0  0  0
   10.1345    7.3256   -8.4529 C   0  0  0  0  0  0  0  0  0  0  0  0
    8.9733    6.5774   -8.3021 O   0  0  0  0  0  0  0  0  0  0  0  0
   10.9789    7.3912   -9.6421 N   0  0  0  0  0  0  0  0  0  0  0  0
   12.7641    8.6735  -11.2439 H   0  0  0  0  0  0  0  0  0  0  0  0
    8.4137    6.7019   -7.4757 H   0  0  0  0  0  0  0  0  0  0  0  0
   10.0664    8.2706   -6.2134 C   0  0  0  0  0  0  0  0  0  0  0  0
   11.0074    8.0661   -5.1087 C   0  0  0  0  0  0  0  0  0  0  0  0
   11.2241    6.8214   -4.5026 C   0  0  0  0  0  0  0  0  0  0  0  0
   12.1653    7.0068   -3.5121 C   0  0  0  0  0  0  0  0  0  0  0  0
   12.5112    8.3444   -3.5211 C   0  0  0  0  0  0  0  0  0  0  0  0
   11.7998    8.9809   -4.4978 N   0  0  0  0  0  0  0  0  0  0  0  0
   11.8620   10.0107   -4.7313 H   0  0  0  0  0  0  0  0  0  0  0  0
   10.6310    6.6134  -10.8018 C   0  0  0  0  0  0  0  0  0  0  0  0
    9.3557    6.7870  -11.4176 C   0  0  0  0  0  0  0  0  0  0  0  0
    8.9207    8.0752  -11.7811 C   0  0  0  0  0  0  0  0  0  0  0  0
    7.6850    8.2146  -12.3554 C   0  0  0  0  0  0  0  0  0  0  0  0
    6.8738    7.1204  -12.5780 C   0  0  0  0  0  0  0  0  0  0  0  0
    7.2803    5.8330  -12.2275 C   0  0  0  0  0  0  0  0  0  0  0  0
    8.5247    5.6811  -11.6477 C   0  0  0  0  0  0  0  0  0  0  0  0
    6.3979    4.7579  -12.4848 N   0  0  0  0  0  0  0  0  0  0  0  0
    6.5971    3.9956  -13.4560 O   0  0  0  0  0  0  0  0  0  0  0  0
    5.2931    4.5091  -11.6833 O   0  0  0  0  0  0  0  0  0  0  0  0
  1  2  1  0  0  0
  2  3  1  0  0  0
  3  4  2  0  0  0
  3  5  1  0  0  0
  5 11  1  0  0  0
 11 12  1  0  0  0
 12 13  2  0  0  0
 13 14  1  0  0  0
 14 15  2  0  0  0
 15 16  1  0  0  0
  5  6  2  0  0  0
  6  7  1  0  0  0
  6  8  1  0  0  0
  8 18  1  0  0  0
 18 19  1  0  0  0
 19 20  2  0  0  0
 20 21  1  0  0  0
 21 22  2  0  0  0
 22 23  1  0  0  0
 23 25  1  0  0  0
 25 26  2  0  0  0
 25 27  1  0  0  0
 23 24  2  0  0  0
  8  2  2  0  0  0
 24 19  1  0  0  0
 16 12  1  0  0  0
  1  9  1  0  0  0
 16 17  1  0  0  0
  7 10  1  0  0  0
M  CHG 1   5   1
M  CHG 1   8   1
M  CHG 1  25   1
M  CHG 1  27  -1
M  END
> <minimizedAffinity>
-8.95681

$$$$
7_1


 27 29  0  0  0  0  0  0  0  0999 V2000
   13.0685    8.5107  -11.4222 O   0  0  0  0  0  0  0  0  0  0  0  0
   12.0939    7.9942  -10.5849 C   0  0  0  0  0  0  0  0  0  0  0  0
   12.1465    7.9771   -9.1113 C   0  0  0  0  0  0  0  0  0  0  0  0
   13.0430    8.4072   -8.3527 O   0  0  0  0  0  0  0  0  0  0  0  0
   10.9152    7.3448   -8.7490 N   0  0  0  0  0  0  0  0  0  0  0  0
   10.2641    7.0473   -9.7988 C   0  0  0  0  0  0  0  0  0  0  0  0
    9.0240    6.4206   -9.7777 O   0  0  0  0  0  0  0  0  0  0  0  0
   11.0107    7.4594  -10.9838 N   0  0  0  0  0  0  0  0  0  0  0  0
   12.8256    9.0504  -12.2376 H   0  0  0  0  0  0  0  0  0  0  0  0
    8.5563    6.2885   -8.8971 H   0  0  0  0  0  0  0  0  0  0  0  0
   10.5121    7.1007   -7.3803 C   0  0  0  0  0  0  0  0  0  0  0  0
   10.7749    8.1972   -6.4442 C   0  0  0  0  0  0  0  0  0  0  0  0
   11.3527    8.0094   -5.1815 C   0  0  0  0  0  0  0  0  0  0  0  0
   11.4471    9.2495   -4.5860 C   0  0  0  0  0  0  0  0  0  0  0  0
   10.9335   10.1718   -5.4773 C   0  0  0  0  0  0  0  0  0  0  0  0
   10.5267    9.5201   -6.6064 N   0  0  0  0  0  0  0  0  0  0  0  0
   10.0935    9.9761   -7.4568 H   0  0  0  0  0  0  0  0  0  0  0  0
   10.4631    7.2049  -12.2900 C   0  0  0  0  0  0  0  0  0  0  0  0
   10.6792    5.9419  -12.9175 C   0  0  0  0  0  0  0  0  0  0  0  0
   11.9388    5.6363  -13.4660 C   0  0  0  0  0  0  0  0  0  0  0  0
   12.1135    4.4230  -14.0773 C   0  0  0  0  0  0  0  0  0  0  0  0
   11.0816    3.5102  -14.1596 C   0  0  0  0  0  0  0  0  0  0  0  0
    9.8237    3.7874  -13.6245 C   0  0  0  0  0  0  0  0  0  0  0  0
    9.6367    5.0081  -13.0058 C   0  0  0  0  0  0  0  0  0  0  0  0
    8.8126    2.8056  -13.7449 N   0  0  0  0  0  0  0  0  0  0  0  0
    9.1121    1.6179  -13.9975 O   0  0  0  0  0  0  0  0  0  0  0  0
    7.4691    3.1150  -13.5903 O   0  0  0  0  0  0  0  0  0  0  0  0
  1  2  1  0  0  0
  2  3  1  0  0  0
  3  4  2  0  0  0
  3  5  1  0  0  0
  5 11  1  0  0  0
 11 12  1  0  0  0
 12 13  2  0  0  0
 13 14  1  0  0  0
 14 15  2  0  0  0
 15 16  1  0  0  0
  5  6  2  0  0  0
  6  7  1  0  0  0
  6  8  1  0  0  0
  8 18  1  0  0  0
 18 19  1  0  0  0
 19 20  2  0  0  0
 20 21  1  0  0  0
 21 22  2  0  0  0
 22 23  1  0  0  0
 23 25  1  0  0  0
 25 26  2  0  0  0
 25 27  1  0  0  0
 23 24  2  0  0  0
  8  2  2  0  0  0
 24 19  1  0  0  0
 16 12  1  0  0  0
  1  9  1  0  0  0
 16 17  1  0  0  0
  7 10  1  0  0  0
M  CHG 1   5   1
M  CHG 1   8   1
M  CHG 1  25   1
M  CHG 1  27  -1
M  END
> <minimizedAffinity>
-8.71028

$$$$
7_1


 27 29  0  0  0  0  0  0  0  0999 V2000
    8.5203    5.8159   -9.7259 O   0  0  0  0  0  0  0  0  0  0  0  0
    9.6741    6.5743   -9.6198 C   0  0  0  0  0  0  0  0  0  0  0  0
   10.3486    6.9431   -8.3614 C   0  0  0  0  0  0  0  0  0  0  0  0
   10.0288    6.6577   -7.1865 O   0  0  0  0  0  0  0  0  0  0  0  0
   11.4688    7.7140   -8.8064 N   0  0  0  0  0  0  0  0  0  0  0  0
   11.4591    7.7866  -10.0749 C   0  0  0  0  0  0  0  0  0  0  0  0
   12.4205    8.4702  -10.8092 O   0  0  0  0  0  0  0  0  0  0  0  0
   10.3116    7.0586  -10.6085 N   0  0  0  0  0  0  0  0  0  0  0  0
    8.4214    5.1104  -10.4385 H   0  0  0  0  0  0  0  0  0  0  0  0
   13.2290    8.8374  -10.3367 H   0  0  0  0  0  0  0  0  0  0  0  0
   12.4420    8.3036   -7.9116 C   0  0  0  0  0  0  0  0  0  0  0  0
   11.8930    8.8857   -6.6837 C   0  0  0  0  0  0  0  0  0  0  0  0
   11.2783   10.1440   -6.6364 C   0  0  0  0  0  0  0  0  0  0  0  0
   10.8883   10.3602   -5.3316 C   0  0  0  0  0  0  0  0  0  0  0  0
   11.2627    9.2479   -4.6027 C   0  0  0  0  0  0  0  0  0  0  0  0
   11.8741    8.3554   -5.4362 N   0  0  0  0  0  0  0  0  0  0  0  0
   12.2633    7.4144   -5.1500 H   0  0  0  0  0  0  0  0  0  0  0  0
   10.0951    7.0217  -12.0307 C   0  0  0  0  0  0  0  0  0  0  0  0
   10.4626    5.8617  -12.7757 C   0  0  0  0  0  0  0  0  0  0  0  0
   11.7484    5.7675  -13.3403 C   0  0  0  0  0  0  0  0  0  0  0  0
   12.0687    4.6500  -14.0647 C   0  0  0  0  0  0  0  0  0  0  0  0
   11.1564    3.6299  -14.2441 C   0  0  0  0  0  0  0  0  0  0  0  0
    9.8758    3.6976  -13.6955 C   0  0  0  0  0  0  0  0  0  0  0  0
    9.5424    4.8203  -12.9632 C   0  0  0  0  0  0  0  0  0  0  0  0
    8.9925    2.6158  -13.9193 N   0  0  0  0  0  0  0  0  0  0  0  0
    9.4410    1.4722  -14.1544 O   0  0  0  0  0  0  0  0  0  0  0  0
    7.6148    2.7763  -13.8877 O   0  0  0  0  0  0  0  0  0  0  0  0
  1  2  1  0  0  0
  2  3  1  0  0  0
  3  4  2  0  0  0
  3  5  1  0  0  0
  5 11  1  0  0  0
 11 12  1  0  0  0
 12 13  2  0  0  0
 13 14  1  0  0  0
 14 15  2  0  0  0
 15 16  1  0  0  0
  5  6  2  0  0  0
  6  7  1  0  0  0
  6  8  1  0  0  0
  8 18  1  0  0  0
 18 19  1  0  0  0
 19 20  2  0  0  0
 20 21  1  0  0  0
 21 22  2  0  0  0
 22 23  1  0  0  0
 23 25  1  0  0  0
 25 26  2  0  0  0
 25 27  1  0  0  0
 23 24  2  0  0  0
  8  2  2  0  0  0
 24 19  1  0  0  0
 16 12  1  0  0  0
  1  9  1  0  0  0
 16 17  1  0  0  0
  7 10  1  0  0  0
M  CHG 1   5   1
M  CHG 1   8   1
M  CHG 1  25   1
M  CHG 1  27  -1
M  END
> <minimizedAffinity>
-8.62762

$$$$
7_1


 27 29  0  0  0  0  0  0  0  0999 V2000
    6.4270    6.8694  -12.0824 O   0  0  0  0  0  0  0  0  0  0  0  0
    7.0147    5.6762  -12.4680 C   0  0  0  0  0  0  0  0  0  0  0  0
    6.3010    4.4914  -12.9793 C   0  0  0  0  0  0  0  0  0  0  0  0
    5.0739    4.3316  -13.1602 O   0  0  0  0  0  0  0  0  0  0  0  0
    7.3559    3.5559  -13.2225 N   0  0  0  0  0  0  0  0  0  0  0  0
    8.4711    4.0823  -12.9165 C   0  0  0  0  0  0  0  0  0  0  0  0
    9.6879    3.4229  -13.0411 O   0  0  0  0  0  0  0  0  0  0  0  0
    8.2649    5.4436  -12.4309 N   0  0  0  0  0  0  0  0  0  0  0  0
    6.8391    7.7571  -12.3217 H   0  0  0  0  0  0  0  0  0  0  0  0
    9.7154    2.5263  -13.4961 H   0  0  0  0  0  0  0  0  0  0  0  0
    7.1400    2.2214  -13.7401 C   0  0  0  0  0  0  0  0  0  0  0  0
    8.2046    1.7041  -14.6044 C   0  0  0  0  0  0  0  0  0  0  0  0
    8.3676    2.0920  -15.9409 C   0  0  0  0  0  0  0  0  0  0  0  0
    9.4591    1.4095  -16.4350 C   0  0  0  0  0  0  0  0  0  0  0  0
    9.9472    0.6214  -15.4106 C   0  0  0  0  0  0  0  0  0  0  0  0
    9.1755    0.8085  -14.2995 N   0  0  0  0  0  0  0  0  0  0  0  0
    9.3174    0.3326  -13.3655 H   0  0  0  0  0  0  0  0  0  0  0  0
    9.3980    6.2255  -12.0119 C   0  0  0  0  0  0  0  0  0  0  0  0
    9.6970    6.3560  -10.6229 C   0  0  0  0  0  0  0  0  0  0  0  0
    9.1328    5.4600   -9.6957 C   0  0  0  0  0  0  0  0  0  0  0  0
    9.4236    5.6187   -8.3666 C   0  0  0  0  0  0  0  0  0  0  0  0
   10.2523    6.6339   -7.9336 C   0  0  0  0  0  0  0  0  0  0  0  0
   10.8246    7.5354   -8.8310 C   0  0  0  0  0  0  0  0  0  0  0  0
   10.5379    7.3844  -10.1737 C   0  0  0  0  0  0  0  0  0  0  0  0
   11.6642    8.5512   -8.3173 N   0  0  0  0  0  0  0  0  0  0  0  0
   12.8974    8.5157   -8.5229 O   0  0  0  0  0  0  0  0  0  0  0  0
   11.1624    9.6114   -7.5763 O   0  0  0  0  0  0  0  0  0  0  0  0
  1  2  1  0  0  0
  2  3  1  0  0  0
  3  4  2  0  0  0
  3  5  1  0  0  0
  5 11  1  0  0  0
 11 12  1  0  0  0
 12 13  2  0  0  0
 13 14  1  0  0  0
 14 15  2  0  0  0
 15 16  1  0  0  0
  5  6  2  0  0  0
  6  7  1  0  0  0
  6  8  1  0  0  0
  8 18  1  0  0  0
 18 19  1  0  0  0
 19 20  2  0  0  0
 20 21  1  0  0  0
 21 22  2  0  0  0
 22 23  1  0  0  0
 23 25  1  0  0  0
 25 26  2  0  0  0
 25 27  1  0  0  0
 23 24  2  0  0  0
  8  2  2  0  0  0
 24 19  1  0  0  0
 16 12  1  0  0  0
  1  9  1  0  0  0
 16 17  1  0  0  0
  7 10  1  0  0  0
M  CHG 1   5   1
M  CHG 1   8   1
M  CHG 1  25   1
M  CHG 1  27  -1
M  END
> <minimizedAffinity>
-8.32206

$$$$
7_1


 27 29  0  0  0  0  0  0  0  0999 V2000
    7.9083    6.3139  -11.0701 O   0  0  0  0  0  0  0  0  0  0  0  0
    9.1711    6.3466  -11.6374 C   0  0  0  0  0  0  0  0  0  0  0  0
    9.6633    5.4434  -12.6941 C   0  0  0  0  0  0  0  0  0  0  0  0
    9.0655    4.5059  -13.2668 O   0  0  0  0  0  0  0  0  0  0  0  0
   11.0024    5.8974  -12.9126 N   0  0  0  0  0  0  0  0  0  0  0  0
   11.2525    6.8743  -12.1396 C   0  0  0  0  0  0  0  0  0  0  0  0
   12.4743    7.5356  -12.1136 O   0  0  0  0  0  0  0  0  0  0  0  0
   10.0843    7.1721  -11.3162 N   0  0  0  0  0  0  0  0  0  0  0  0
    7.4009    7.1618  -10.8733 H   0  0  0  0  0  0  0  0  0  0  0  0
   13.1665    7.3144  -12.8091 H   0  0  0  0  0  0  0  0  0  0  0  0
   11.9020    5.3041  -13.8791 C   0  0  0  0  0  0  0  0  0  0  0  0
   12.1126    6.0846  -15.1015 C   0  0  0  0  0  0  0  0  0  0  0  0
   11.4517    5.8186  -16.3080 C   0  0  0  0  0  0  0  0  0  0  0  0
   11.8934    6.7444  -17.2294 C   0  0  0  0  0  0  0  0  0  0  0  0
   12.8077    7.5571  -16.5873 C   0  0  0  0  0  0  0  0  0  0  0  0
   12.9339    7.1464  -15.2909 N   0  0  0  0  0  0  0  0  0  0  0  0
   13.5659    7.5864  -14.5657 H   0  0  0  0  0  0  0  0  0  0  0  0
   10.1502    8.2388  -10.3525 C   0  0  0  0  0  0  0  0  0  0  0  0
   10.5424    7.9601   -9.0094 C   0  0  0  0  0  0  0  0  0  0  0  0
   10.3919    6.6612   -8.4887 C   0  0  0  0  0  0  0  0  0  0  0  0
   10.7610    6.4256   -7.1909 C   0  0  0  0  0  0  0  0  0  0  0  0
   11.2718    7.4347   -6.3998 C   0  0  0  0  0  0  0  0  0  0  0  0
   11.4316    8.7305   -6.8905 C   0  0  0  0  0  0  0  0  0  0  0  0
   11.0624    8.9789   -8.1982 C   0  0  0  0  0  0  0  0  0  0  0  0
   11.9613    9.7151   -6.0241 N   0  0  0  0  0  0  0  0  0  0  0  0
   12.7617    9.3947   -5.1180 O   0  0  0  0  0  0  0  0  0  0  0  0
   11.6202   11.0547   -6.1420 O   0  0  0  0  0  0  0  0  0  0  0  0
  1  2  1  0  0  0
  2  3  1  0  0  0
  3  4  2  0  0  0
  3  5  1  0  0  0
  5 11  1  0  0  0
 11 12  1  0  0  0
 12 13  2  0  0  0
 13 14  1  0  0  0
 14 15  2  0  0  0
 15 16  1  0  0  0
  5  6  2  0  0  0
  6  7  1  0  0  0
  6  8  1  0  0  0
  8 18  1  0  0  0
 18 19  1  0  0  0
 19 20  2  0  0  0
 20 21  1  0  0  0
 21 22  2  0  0  0
 22 23  1  0  0  0
 23 25  1  0  0  0
 25 26  2  0  0  0
 25 27  1  0  0  0
 23 24  2  0  0  0
  8  2  2  0  0  0
 24 19  1  0  0  0
 16 12  1  0  0  0
  1  9  1  0  0  0
 16 17  1  0  0  0
  7 10  1  0  0  0
M  CHG 1   5   1
M  CHG 1   8   1
M  CHG 1  25   1
M  CHG 1  27  -1
M  END
> <minimizedAffinity>
-8.14241

$$$$
7_1


 27 29  0  0  0  0  0  0  0  0999 V2000
    8.6857    6.4468  -10.0258 O   0  0  0  0  0  0  0  0  0  0  0  0
    9.8518    6.8142  -10.6761 C   0  0  0  0  0  0  0  0  0  0  0  0
   10.4079    6.1652  -11.8778 C   0  0  0  0  0  0  0  0  0  0  0  0
    9.9582    5.1939  -12.5247 O   0  0  0  0  0  0  0  0  0  0  0  0
   11.5980    6.9175  -12.1327 N   0  0  0  0  0  0  0  0  0  0  0  0
   11.7213    7.8296  -11.2567 C   0  0  0  0  0  0  0  0  0  0  0  0
   12.7797    8.7296  -11.2335 O   0  0  0  0  0  0  0  0  0  0  0  0
   10.6061    7.7734  -10.3161 N   0  0  0  0  0  0  0  0  0  0  0  0
    8.0393    7.1379   -9.6800 H   0  0  0  0  0  0  0  0  0  0  0  0
   13.4286    8.7434  -12.0019 H   0  0  0  0  0  0  0  0  0  0  0  0
   12.4971    6.6459  -13.2342 C   0  0  0  0  0  0  0  0  0  0  0  0
   12.0424    5.6197  -14.1765 C   0  0  0  0  0  0  0  0  0  0  0  0
   11.5193    5.9148  -15.4425 C   0  0  0  0  0  0  0  0  0  0  0  0
   11.2006    4.7154  -16.0434 C   0  0  0  0  0  0  0  0  0  0  0  0
   11.5272    3.7114  -15.1523 C   0  0  0  0  0  0  0  0  0  0  0  0
   12.0394    4.2734  -14.0177 N   0  0  0  0  0  0  0  0  0  0  0  0
   12.3738    3.7426  -13.1661 H   0  0  0  0  0  0  0  0  0  0  0  0
   10.5509    8.7112   -9.2260 C   0  0  0  0  0  0  0  0  0  0  0  0
   10.6973    8.2502   -7.8837 C   0  0  0  0  0  0  0  0  0  0  0  0
   10.3731    6.9197   -7.5587 C   0  0  0  0  0  0  0  0  0  0  0  0
   10.5072    6.5085   -6.2590 C   0  0  0  0  0  0  0  0  0  0  0  0
   10.9506    7.3733   -5.2790 C   0  0  0  0  0  0  0  0  0  0  0  0
   11.2787    8.6965   -5.5737 C   0  0  0  0  0  0  0  0  0  0  0  0
   11.1471    9.1216   -6.8813 C   0  0  0  0  0  0  0  0  0  0  0  0
   11.7266    9.5270   -4.5199 N   0  0  0  0  0  0  0  0  0  0  0  0
   10.9147   10.2358   -3.8855 O   0  0  0  0  0  0  0  0  0  0  0  0
   13.0632    9.5883   -4.1531 O   0  0  0  0  0  0  0  0  0  0  0  0
  1  2  1  0  0  0
  2  3  1  0  0  0
  3  4  2  0  0  0
  3  5  1  0  0  0
  5 11  1  0  0  0
 11 12  1  0  0  0
 12 13  2  0  0  0
 13 14  1  0  0  0
 14 15  2  0  0  0
 15 16  1  0  0  0
  5  6  2  0  0  0
  6  7  1  0  0  0
  6  8  1  0  0  0
  8 18  1  0  0  0
 18 19  1  0  0  0
 19 20  2  0  0  0
 20 21  1  0  0  0
 21 22  2  0  0  0
 22 23  1  0  0  0
 23 25  1  0  0  0
 25 26  2  0  0  0
 25 27  1  0  0  0
 23 24  2  0  0  0
  8  2  2  0  0  0
 24 19  1  0  0  0
 16 12  1  0  0  0
  1  9  1  0  0  0
 16 17  1  0  0  0
  7 10  1  0  0  0
M  CHG 1   5   1
M  CHG 1   8   1
M  CHG 1  25   1
M  CHG 1  27  -1
M  END
> <minimizedAffinity>
-6.07693

$$$$
7_1


 27 29  0  0  0  0  0  0  0  0999 V2000
   10.4755    3.0647  -13.0964 O   0  0  0  0  0  0  0  0  0  0  0  0
   10.4389    3.2524  -14.4680 C   0  0  0  0  0  0  0  0  0  0  0  0
   11.5120    3.8509  -15.2834 C   0  0  0  0  0  0  0  0  0  0  0  0
   12.6239    4.2907  -14.9170 O   0  0  0  0  0  0  0  0  0  0  0  0
   10.9750    3.8096  -16.6089 N   0  0  0  0  0  0  0  0  0  0  0  0
    9.8156    3.2902  -16.5829 C   0  0  0  0  0  0  0  0  0  0  0  0
    9.0323    3.1109  -17.7166 O   0  0  0  0  0  0  0  0  0  0  0  0
    9.4606    2.9283  -15.2138 N   0  0  0  0  0  0  0  0  0  0  0  0
   10.1278    2.2183  -12.6746 H   0  0  0  0  0  0  0  0  0  0  0  0
    9.4306    3.2944  -18.6218 H   0  0  0  0  0  0  0  0  0  0  0  0
   11.6807    4.2970  -17.7750 C   0  0  0  0  0  0  0  0  0  0  0  0
   12.1129    5.6957  -17.7072 C   0  0  0  0  0  0  0  0  0  0  0  0
   11.2660    6.7773  -17.9838 C   0  0  0  0  0  0  0  0  0  0  0  0
   12.0065    7.9290  -17.8210 C   0  0  0  0  0  0  0  0  0  0  0  0
   13.2818    7.5471  -17.4514 C   0  0  0  0  0  0  0  0  0  0  0  0
   13.3358    6.1840  -17.3850 N   0  0  0  0  0  0  0  0  0  0  0  0
   14.1889    5.6148  -17.1259 H   0  0  0  0  0  0  0  0  0  0  0  0
    8.1768    2.3346  -14.9483 C   0  0  0  0  0  0  0  0  0  0  0  0
    7.3008    2.9328  -13.9941 C   0  0  0  0  0  0  0  0  0  0  0  0
    6.1407    2.2511  -13.5814 C   0  0  0  0  0  0  0  0  0  0  0  0
    5.3088    2.8560  -12.6768 C   0  0  0  0  0  0  0  0  0  0  0  0
    5.5926    4.1093  -12.1732 C   0  0  0  0  0  0  0  0  0  0  0  0
    6.7352    4.8066  -12.5650 C   0  0  0  0  0  0  0  0  0  0  0  0
    7.5810    4.2057  -13.4768 C   0  0  0  0  0  0  0  0  0  0  0  0
    6.9634    6.0868  -12.0082 N   0  0  0  0  0  0  0  0  0  0  0  0
    6.5536    7.1128  -12.5943 O   0  0  0  0  0  0  0  0  0  0  0  0
    7.6402    6.2539  -10.8088 O   0  0  0  0  0  0  0  0  0  0  0  0
  1  2  1  0  0  0
  2  3  1  0  0  0
  3  4  2  0  0  0
  3  5  1  0  0  0
  5 11  1  0  0  0
 11 12  1  0  0  0
 12 13  2  0  0  0
 13 14  1  0  0  0
 14 15  2  0  0  0
 15 16  1  0  0  0
  5  6  2  0  0  0
  6  7  1  0  0  0
  6  8  1  0  0  0
  8 18  1  0  0  0
 18 19  1  0  0  0
 19 20  2  0  0  0
 20 21  1  0  0  0
 21 22  2  0  0  0
 22 23  1  0  0  0
 23 25  1  0  0  0
 25 26  2  0  0  0
 25 27  1  0  0  0
 23 24  2  0  0  0
  8  2  2  0  0  0
 24 19  1  0  0  0
 16 12  1  0  0  0
  1  9  1  0  0  0
 16 17  1  0  0  0
  7 10  1  0  0  0
M  CHG 1   5   1
M  CHG 1   8   1
M  CHG 1  25   1
M  CHG 1  27  -1
M  END
> <minimizedAffinity>
-5.98320

$$$$
