11_0


 28 31  0  0  0  0  0  0  0  0999 V2000
    8.0110    0.9660  -14.1022 C   0  0  0  0  0  0  0  0  0  0  0  0
    9.2639    0.2384  -14.3575 N   0  0  0  0  0  0  0  0  0  0  0  0
    9.8497    0.8878  -15.5017 C   0  0  0  0  0  0  0  0  0  0  0  0
   10.7594    0.4756  -16.4535 C   0  0  0  0  0  0  0  0  0  0  0  0
   11.1006    1.3849  -17.4399 C   0  0  0  0  0  0  0  0  0  0  0  0
   10.5663    2.6301  -17.4748 N   0  0  0  0  0  0  0  0  0  0  0  0
    9.6706    3.0388  -16.5391 C   0  0  0  0  0  0  0  0  0  0  0  0
    9.3033    2.1747  -15.5435 C   0  0  0  0  0  0  0  0  0  0  0  0
    8.3996    2.3190  -14.4453 N   0  0  0  0  0  0  0  0  0  0  0  0
    9.6587   -0.5730  -13.8349 H   0  0  0  0  0  0  0  0  0  0  0  0
    3.7759   -1.2476  -17.1299 O   0  0  0  0  0  0  0  0  0  0  0  0
    4.7952   -0.6961  -16.4176 N   0  0  0  0  0  0  0  0  0  0  0  0
    5.4047    0.4400  -16.8187 C   0  0  0  0  0  0  0  0  0  0  0  0
    6.4472    0.9979  -16.0835 C   0  0  0  0  0  0  0  0  0  0  0  0
    6.9073    0.4261  -14.9202 C   0  0  0  0  0  0  0  0  0  0  0  0
    6.2508   -0.7527  -14.5341 C   0  0  0  0  0  0  0  0  0  0  0  0
    5.2196   -1.2774  -15.2889 C   0  0  0  0  0  0  0  0  0  0  0  0
    7.9696    3.4932  -13.7850 C   0  0  0  0  0  0  0  0  0  0  0  0
    8.7688    4.5632  -13.4781 C   0  0  0  0  0  0  0  0  0  0  0  0
    8.2923    5.7061  -12.8349 C   0  0  0  0  0  0  0  0  0  0  0  0
    6.9652    5.8025  -12.4748 C   0  0  0  0  0  0  0  0  0  0  0  0
    6.1507    4.7450  -12.7716 C   0  0  0  0  0  0  0  0  0  0  0  0
    6.6257    3.6061  -13.4129 C   0  0  0  0  0  0  0  0  0  0  0  0
    6.4188    6.9006  -11.8357 O   0  0  0  0  0  0  0  0  0  0  0  0
    6.4877    8.2065  -12.4174 C   0  0  0  0  0  0  0  0  0  0  0  0
    5.4789    8.9945  -11.8623 F   0  0  0  0  0  0  0  0  0  0  0  0
    7.6937    8.8236  -12.1766 F   0  0  0  0  0  0  0  0  0  0  0  0
    6.2254    8.1180  -13.7581 F   0  0  0  0  0  0  0  0  0  0  0  0
 11 12  1  0  0  0
 12 13  2  0  0  0
 13 14  1  0  0  0
 14 15  2  0  0  0
 15  1  1  0  0  0
  1  2  1  0  0  0
  2  3  1  0  0  0
  3  4  2  0  0  0
  4  5  1  0  0  0
  5  6  2  0  0  0
  6  7  1  0  0  0
  7  8  2  0  0  0
  8  9  1  0  0  0
  9 18  1  0  0  0
 18 19  2  0  0  0
 19 20  1  0  0  0
 20 21  2  0  0  0
 21 24  1  0  0  0
 24 25  1  0  0  0
 25 26  1  0  0  0
 25 27  1  0  0  0
 25 28  1  0  0  0
 21 22  1  0  0  0
 22 23  2  0  0  0
 15 16  1  0  0  0
 16 17  2  0  0  0
 17 12  1  0  0  0
  9  1  1  0  0  0
 23 18  1  0  0  0
  8  3  1  0  0  0
  2 10  1  0  0  0
M  CHG 1  11  -1
M  CHG 1  12   1
M  END
> <minimizedAffinity>
-9.37342

$$$$
11_0


 28 31  0  0  0  0  0  0  0  0999 V2000
    8.1020    0.6719  -14.2334 C   0  0  0  0  0  0  0  0  0  0  0  0
    8.9781   -0.0975  -15.1305 N   0  0  0  0  0  0  0  0  0  0  0  0
    8.9426    0.6067  -16.3863 C   0  0  0  0  0  0  0  0  0  0  0  0
    9.1936    0.2225  -17.6873 C   0  0  0  0  0  0  0  0  0  0  0  0
    9.0526    1.1861  -18.6712 C   0  0  0  0  0  0  0  0  0  0  0  0
    8.6834    2.4561  -18.3750 N   0  0  0  0  0  0  0  0  0  0  0  0
    8.4358    2.8374  -17.0950 C   0  0  0  0  0  0  0  0  0  0  0  0
    8.5630    1.9195  -16.0880 C   0  0  0  0  0  0  0  0  0  0  0  0
    8.3701    2.0255  -14.6755 N   0  0  0  0  0  0  0  0  0  0  0  0
    9.5160   -0.9659  -14.9211 H   0  0  0  0  0  0  0  0  0  0  0  0
    2.6585   -0.8045  -14.6716 O   0  0  0  0  0  0  0  0  0  0  0  0
    3.9734   -0.4676  -14.5822 N   0  0  0  0  0  0  0  0  0  0  0  0
    4.9298   -1.1751  -15.2208 C   0  0  0  0  0  0  0  0  0  0  0  0
    6.2734   -0.8233  -15.1240 C   0  0  0  0  0  0  0  0  0  0  0  0
    6.6938    0.2540  -14.3793 C   0  0  0  0  0  0  0  0  0  0  0  0
    5.6732    0.9656  -13.7300 C   0  0  0  0  0  0  0  0  0  0  0  0
    4.3499    0.5873  -13.8489 C   0  0  0  0  0  0  0  0  0  0  0  0
    8.4420    3.1661  -13.8428 C   0  0  0  0  0  0  0  0  0  0  0  0
    7.3741    3.9410  -13.4725 C   0  0  0  0  0  0  0  0  0  0  0  0
    7.4965    5.0518  -12.6372 C   0  0  0  0  0  0  0  0  0  0  0  0
    8.7287    5.4203  -12.1414 C   0  0  0  0  0  0  0  0  0  0  0  0
    9.8076    4.6603  -12.4995 C   0  0  0  0  0  0  0  0  0  0  0  0
    9.6856    3.5529  -13.3318 C   0  0  0  0  0  0  0  0  0  0  0  0
    8.9304    6.5066  -11.3095 O   0  0  0  0  0  0  0  0  0  0  0  0
    9.5556    7.7012  -11.7898 C   0  0  0  0  0  0  0  0  0  0  0  0
   10.2340    8.3050  -10.7303 F   0  0  0  0  0  0  0  0  0  0  0  0
   10.4646    7.4497  -12.7916 F   0  0  0  0  0  0  0  0  0  0  0  0
    8.5911    8.5844  -12.1941 F   0  0  0  0  0  0  0  0  0  0  0  0
 11 12  1  0  0  0
 12 13  2  0  0  0
 13 14  1  0  0  0
 14 15  2  0  0  0
 15  1  1  0  0  0
  1  2  1  0  0  0
  2  3  1  0  0  0
  3  4  2  0  0  0
  4  5  1  0  0  0
  5  6  2  0  0  0
  6  7  1  0  0  0
  7  8  2  0  0  0
  8  9  1  0  0  0
  9 18  1  0  0  0
 18 19  2  0  0  0
 19 20  1  0  0  0
 20 21  2  0  0  0
 21 24  1  0  0  0
 24 25  1  0  0  0
 25 26  1  0  0  0
 25 27  1  0  0  0
 25 28  1  0  0  0
 21 22  1  0  0  0
 22 23  2  0  0  0
 15 16  1  0  0  0
 16 17  2  0  0  0
 17 12  1  0  0  0
  9  1  1  0  0  0
 23 18  1  0  0  0
  8  3  1  0  0  0
  2 10  1  0  0  0
M  CHG 1  11  -1
M  CHG 1  12   1
M  END
> <minimizedAffinity>
-8.61547

$$$$
11_0


 28 31  0  0  0  0  0  0  0  0999 V2000
    9.5387    4.6807  -13.0399 C   0  0  0  0  0  0  0  0  0  0  0  0
    9.9545    5.6954  -12.0592 N   0  0  0  0  0  0  0  0  0  0  0  0
    8.9656    6.7380  -12.1541 C   0  0  0  0  0  0  0  0  0  0  0  0
    8.9796    8.0795  -11.8322 C   0  0  0  0  0  0  0  0  0  0  0  0
    7.8216    8.8002  -12.0687 C   0  0  0  0  0  0  0  0  0  0  0  0
    6.7165    8.2178  -12.5948 N   0  0  0  0  0  0  0  0  0  0  0  0
    6.6996    6.8973  -12.9126 C   0  0  0  0  0  0  0  0  0  0  0  0
    7.8212    6.1436  -12.6957 C   0  0  0  0  0  0  0  0  0  0  0  0
    8.0962    4.7603  -12.9286 N   0  0  0  0  0  0  0  0  0  0  0  0
   10.7818    5.6807  -11.4245 H   0  0  0  0  0  0  0  0  0  0  0  0
   11.6777    5.9775  -18.1140 O   0  0  0  0  0  0  0  0  0  0  0  0
   11.1443    5.6542  -16.9051 N   0  0  0  0  0  0  0  0  0  0  0  0
    9.9566    5.0202  -16.8028 C   0  0  0  0  0  0  0  0  0  0  0  0
    9.4179    4.6929  -15.5613 C   0  0  0  0  0  0  0  0  0  0  0  0
   10.0614    4.9955  -14.3840 C   0  0  0  0  0  0  0  0  0  0  0  0
   11.2923    5.6539  -14.5286 C   0  0  0  0  0  0  0  0  0  0  0  0
   11.7962    5.9628  -15.7773 C   0  0  0  0  0  0  0  0  0  0  0  0
    7.2011    3.6688  -13.0121 C   0  0  0  0  0  0  0  0  0  0  0  0
    5.9017    3.6792  -12.5769 C   0  0  0  0  0  0  0  0  0  0  0  0
    5.0539    2.5771  -12.6933 C   0  0  0  0  0  0  0  0  0  0  0  0
    5.5048    1.4067  -13.2650 C   0  0  0  0  0  0  0  0  0  0  0  0
    6.7990    1.3753  -13.7053 C   0  0  0  0  0  0  0  0  0  0  0  0
    7.6438    2.4739  -13.5895 C   0  0  0  0  0  0  0  0  0  0  0  0
    4.7262    0.2736  -13.4155 O   0  0  0  0  0  0  0  0  0  0  0  0
    4.4272   -0.2528  -14.7124 C   0  0  0  0  0  0  0  0  0  0  0  0
    5.0736   -1.4813  -14.8537 F   0  0  0  0  0  0  0  0  0  0  0  0
    3.0789   -0.4554  -14.8969 F   0  0  0  0  0  0  0  0  0  0  0  0
    4.9476    0.5780  -15.6679 F   0  0  0  0  0  0  0  0  0  0  0  0
 11 12  1  0  0  0
 12 13  2  0  0  0
 13 14  1  0  0  0
 14 15  2  0  0  0
 15  1  1  0  0  0
  1  2  1  0  0  0
  2  3  1  0  0  0
  3  4  2  0  0  0
  4  5  1  0  0  0
  5  6  2  0  0  0
  6  7  1  0  0  0
  7  8  2  0  0  0
  8  9  1  0  0  0
  9 18  1  0  0  0
 18 19  2  0  0  0
 19 20  1  0  0  0
 20 21  2  0  0  0
 21 24  1  0  0  0
 24 25  1  0  0  0
 25 26  1  0  0  0
 25 27  1  0  0  0
 25 28  1  0  0  0
 21 22  1  0  0  0
 22 23  2  0  0  0
 15 16  1  0  0  0
 16 17  2  0  0  0
 17 12  1  0  0  0
  9  1  1  0  0  0
 23 18  1  0  0  0
  8  3  1  0  0  0
  2 10  1  0  0  0
M  CHG 1  11  -1
M  CHG 1  12   1
M  END
> <minimizedAffinity>
-8.49521

$$$$
11_0


 28 31  0  0  0  0  0  0  0  0999 V2000
    7.9364    2.0328  -16.5567 C   0  0  0  0  0  0  0  0  0  0  0  0
    6.6295    1.4681  -16.9270 N   0  0  0  0  0  0  0  0  0  0  0  0
    6.3688    0.4472  -15.9452 C   0  0  0  0  0  0  0  0  0  0  0  0
    5.5665   -0.6751  -15.9457 C   0  0  0  0  0  0  0  0  0  0  0  0
    5.5651   -1.4539  -14.8012 C   0  0  0  0  0  0  0  0  0  0  0  0
    6.3188   -1.1324  -13.7215 N   0  0  0  0  0  0  0  0  0  0  0  0
    7.1096   -0.0280  -13.7179 C   0  0  0  0  0  0  0  0  0  0  0  0
    7.1431    0.7733  -14.8269 C   0  0  0  0  0  0  0  0  0  0  0  0
    7.8661    1.9733  -15.1107 N   0  0  0  0  0  0  0  0  0  0  0  0
    6.0115    1.7354  -17.7233 H   0  0  0  0  0  0  0  0  0  0  0  0
   12.2791   -0.8457  -18.7611 O   0  0  0  0  0  0  0  0  0  0  0  0
   11.2195   -0.1718  -18.2381 N   0  0  0  0  0  0  0  0  0  0  0  0
    9.9574   -0.6367  -18.3563 C   0  0  0  0  0  0  0  0  0  0  0  0
    8.8785    0.0594  -17.8178 C   0  0  0  0  0  0  0  0  0  0  0  0
    9.0399    1.2470  -17.1430 C   0  0  0  0  0  0  0  0  0  0  0  0
   10.3643    1.6996  -17.0397 C   0  0  0  0  0  0  0  0  0  0  0  0
   11.4104    0.9820  -17.5866 C   0  0  0  0  0  0  0  0  0  0  0  0
    8.3921    2.9366  -14.2191 C   0  0  0  0  0  0  0  0  0  0  0  0
    9.7226    3.1101  -13.9405 C   0  0  0  0  0  0  0  0  0  0  0  0
   10.1923    4.0854  -13.0600 C   0  0  0  0  0  0  0  0  0  0  0  0
    9.3116    4.9317  -12.4212 C   0  0  0  0  0  0  0  0  0  0  0  0
    7.9791    4.7746  -12.6851 C   0  0  0  0  0  0  0  0  0  0  0  0
    7.5111    3.8028  -13.5628 C   0  0  0  0  0  0  0  0  0  0  0  0
    9.6995    5.9213  -11.5362 O   0  0  0  0  0  0  0  0  0  0  0  0
   10.0417    7.2330  -11.9955 C   0  0  0  0  0  0  0  0  0  0  0  0
   10.7484    7.8875  -10.9858 F   0  0  0  0  0  0  0  0  0  0  0  0
   10.8328    7.2035  -13.1209 F   0  0  0  0  0  0  0  0  0  0  0  0
    8.8955    7.9520  -12.2035 F   0  0  0  0  0  0  0  0  0  0  0  0
 11 12  1  0  0  0
 12 13  2  0  0  0
 13 14  1  0  0  0
 14 15  2  0  0  0
 15  1  1  0  0  0
  1  2  1  0  0  0
  2  3  1  0  0  0
  3  4  2  0  0  0
  4  5  1  0  0  0
  5  6  2  0  0  0
  6  7  1  0  0  0
  7  8  2  0  0  0
  8  9  1  0  0  0
  9 18  1  0  0  0
 18 19  2  0  0  0
 19 20  1  0  0  0
 20 21  2  0  0  0
 21 24  1  0  0  0
 24 25  1  0  0  0
 25 26  1  0  0  0
 25 27  1  0  0  0
 25 28  1  0  0  0
 21 22  1  0  0  0
 22 23  2  0  0  0
 15 16  1  0  0  0
 16 17  2  0  0  0
 17 12  1  0  0  0
  9  1  1  0  0  0
 23 18  1  0  0  0
  8  3  1  0  0  0
  2 10  1  0  0  0
M  CHG 1  11  -1
M  CHG 1  12   1
M  END
> <minimizedAffinity>
-8.35450

$$$$
11_0


 28 31  0  0  0  0  0  0  0  0999 V2000
   10.7932    5.5665  -16.0050 C   0  0  0  0  0  0  0  0  0  0  0  0
    9.9696    4.6442  -16.8020 N   0  0  0  0  0  0  0  0  0  0  0  0
   10.1161    3.3615  -16.1638 C   0  0  0  0  0  0  0  0  0  0  0  0
    9.9552    2.0657  -16.6091 C   0  0  0  0  0  0  0  0  0  0  0  0
   10.1925    1.0490  -15.7001 C   0  0  0  0  0  0  0  0  0  0  0  0
   10.5679    1.3093  -14.4240 N   0  0  0  0  0  0  0  0  0  0  0  0
   10.7271    2.5841  -13.9826 C   0  0  0  0  0  0  0  0  0  0  0  0
   10.5028    3.6226  -14.8452 C   0  0  0  0  0  0  0  0  0  0  0  0
   10.5910    5.0387  -14.6709 N   0  0  0  0  0  0  0  0  0  0  0  0
    9.3972    4.8546  -17.6479 H   0  0  0  0  0  0  0  0  0  0  0  0
   16.1906    5.6769  -17.6962 O   0  0  0  0  0  0  0  0  0  0  0  0
   14.8913    5.6265  -17.2965 N   0  0  0  0  0  0  0  0  0  0  0  0
   14.1386    4.5199  -17.4754 C   0  0  0  0  0  0  0  0  0  0  0  0
   12.8094    4.4768  -17.0631 C   0  0  0  0  0  0  0  0  0  0  0  0
   12.1982    5.5498  -16.4572 C   0  0  0  0  0  0  0  0  0  0  0  0
   13.0101    6.6818  -16.2878 C   0  0  0  0  0  0  0  0  0  0  0  0
   14.3257    6.6884  -16.7094 C   0  0  0  0  0  0  0  0  0  0  0  0
   10.4831    5.8060  -13.4879 C   0  0  0  0  0  0  0  0  0  0  0  0
    9.3447    5.9426  -12.7374 C   0  0  0  0  0  0  0  0  0  0  0  0
    9.2933    6.7033  -11.5689 C   0  0  0  0  0  0  0  0  0  0  0  0
   10.4154    7.3629  -11.1153 C   0  0  0  0  0  0  0  0  0  0  0  0
   11.5619    7.2400  -11.8503 C   0  0  0  0  0  0  0  0  0  0  0  0
   11.6131    6.4815  -13.0148 C   0  0  0  0  0  0  0  0  0  0  0  0
   10.4436    8.1350   -9.9681 O   0  0  0  0  0  0  0  0  0  0  0  0
   10.8122    7.5716   -8.7050 C   0  0  0  0  0  0  0  0  0  0  0  0
   10.2216    8.3273   -7.6915 F   0  0  0  0  0  0  0  0  0  0  0  0
   10.3888    6.2694   -8.5693 F   0  0  0  0  0  0  0  0  0  0  0  0
   12.1667    7.6813   -8.5397 F   0  0  0  0  0  0  0  0  0  0  0  0
 11 12  1  0  0  0
 12 13  2  0  0  0
 13 14  1  0  0  0
 14 15  2  0  0  0
 15  1  1  0  0  0
  1  2  1  0  0  0
  2  3  1  0  0  0
  3  4  2  0  0  0
  4  5  1  0  0  0
  5  6  2  0  0  0
  6  7  1  0  0  0
  7  8  2  0  0  0
  8  9  1  0  0  0
  9 18  1  0  0  0
 18 19  2  0  0  0
 19 20  1  0  0  0
 20 21  2  0  0  0
 21 24  1  0  0  0
 24 25  1  0  0  0
 25 26  1  0  0  0
 25 27  1  0  0  0
 25 28  1  0  0  0
 21 22  1  0  0  0
 22 23  2  0  0  0
 15 16  1  0  0  0
 16 17  2  0  0  0
 17 12  1  0  0  0
  9  1  1  0  0  0
 23 18  1  0  0  0
  8  3  1  0  0  0
  2 10  1  0  0  0
M  CHG 1  11  -1
M  CHG 1  12   1
M  END
> <minimizedAffinity>
-7.71413

$$$$
11_0


 28 31  0  0  0  0  0  0  0  0999 V2000
    9.7621    5.6279  -17.5581 C   0  0  0  0  0  0  0  0  0  0  0  0
    9.2606    4.6049  -18.4888 N   0  0  0  0  0  0  0  0  0  0  0  0
   10.1394    3.4769  -18.3174 C   0  0  0  0  0  0  0  0  0  0  0  0
   10.4657    2.4076  -19.1257 C   0  0  0  0  0  0  0  0  0  0  0  0
   11.3758    1.4910  -18.6278 C   0  0  0  0  0  0  0  0  0  0  0  0
   11.9272    1.6328  -17.3977 N   0  0  0  0  0  0  0  0  0  0  0  0
   11.6077    2.6844  -16.5995 C   0  0  0  0  0  0  0  0  0  0  0  0
   10.7116    3.6162  -17.0487 C   0  0  0  0  0  0  0  0  0  0  0  0
   10.1949    4.8052  -16.4466 N   0  0  0  0  0  0  0  0  0  0  0  0
    8.4475    4.6649  -19.1390 H   0  0  0  0  0  0  0  0  0  0  0  0
   13.9677    8.6996  -19.7674 O   0  0  0  0  0  0  0  0  0  0  0  0
   12.9452    7.9608  -19.2583 N   0  0  0  0  0  0  0  0  0  0  0  0
   11.8709    7.6299  -20.0063 C   0  0  0  0  0  0  0  0  0  0  0  0
   10.8287    6.8732  -19.4774 C   0  0  0  0  0  0  0  0  0  0  0  0
   10.8384    6.4267  -18.1764 C   0  0  0  0  0  0  0  0  0  0  0  0
   11.9696    6.7892  -17.4293 C   0  0  0  0  0  0  0  0  0  0  0  0
   12.9851    7.5413  -17.9876 C   0  0  0  0  0  0  0  0  0  0  0  0
   10.0815    5.1421  -15.0779 C   0  0  0  0  0  0  0  0  0  0  0  0
    8.9752    4.9206  -14.3001 C   0  0  0  0  0  0  0  0  0  0  0  0
    8.9178    5.2614  -12.9483 C   0  0  0  0  0  0  0  0  0  0  0  0
   10.0003    5.8493  -12.3299 C   0  0  0  0  0  0  0  0  0  0  0  0
   11.1143    6.0796  -13.0888 C   0  0  0  0  0  0  0  0  0  0  0  0
   11.1715    5.7396  -14.4361 C   0  0  0  0  0  0  0  0  0  0  0  0
   10.0200    6.2154  -10.9963 O   0  0  0  0  0  0  0  0  0  0  0  0
   10.3540    7.5493  -10.5993 C   0  0  0  0  0  0  0  0  0  0  0  0
   10.0702    7.6932   -9.2407 F   0  0  0  0  0  0  0  0  0  0  0  0
   11.6866    7.8339  -10.7901 F   0  0  0  0  0  0  0  0  0  0  0  0
    9.5491    8.4337  -11.2655 F   0  0  0  0  0  0  0  0  0  0  0  0
 11 12  1  0  0  0
 12 13  2  0  0  0
 13 14  1  0  0  0
 14 15  2  0  0  0
 15  1  1  0  0  0
  1  2  1  0  0  0
  2  3  1  0  0  0
  3  4  2  0  0  0
  4  5  1  0  0  0
  5  6  2  0  0  0
  6  7  1  0  0  0
  7  8  2  0  0  0
  8  9  1  0  0  0
  9 18  1  0  0  0
 18 19  2  0  0  0
 19 20  1  0  0  0
 20 21  2  0  0  0
 21 24  1  0  0  0
 24 25  1  0  0  0
 25 26  1  0  0  0
 25 27  1  0  0  0
 25 28  1  0  0  0
 21 22  1  0  0  0
 22 23  2  0  0  0
 15 16  1  0  0  0
 16 17  2  0  0  0
 17 12  1  0  0  0
  9  1  1  0  0  0
 23 18  1  0  0  0
  8  3  1  0  0  0
  2 10  1  0  0  0
M  CHG 1  11  -1
M  CHG 1  12   1
M  END
> <minimizedAffinity>
-6.66757

$$$$
