13_1


 31 34  0  0  0  0  0  0  0  0999 V2000
   10.8998    6.8306  -12.6926 C   0  0  0  0  0  0  0  0  0  0  0  0
   11.9497    7.0932  -13.5382 N   0  0  0  0  0  0  0  0  0  0  0  0
   11.8870    6.3436  -14.6299 C   0  0  0  0  0  0  0  0  0  0  0  0
   12.8343    6.3386  -15.7736 C   0  0  0  0  0  0  0  0  0  0  0  0
   10.7618    5.5621  -14.4971 C   0  0  0  0  0  0  0  0  0  0  0  0
   10.2828    4.6332  -15.3182 N   0  0  0  0  0  0  0  0  0  0  0  0
    9.1782    3.9452  -15.0014 C   0  0  0  0  0  0  0  0  0  0  0  0
    8.5516    4.2380  -13.7804 C   0  0  0  0  0  0  0  0  0  0  0  0
    9.0742    5.2049  -12.9554 C   0  0  0  0  0  0  0  0  0  0  0  0
    8.4771    5.4193  -11.7030 N   0  0  0  0  0  0  0  0  0  0  0  0
    7.5378    5.7970  -11.5055 H   0  0  0  0  0  0  0  0  0  0  0  0
    9.0537    5.1653  -10.8474 H   0  0  0  0  0  0  0  0  0  0  0  0
   10.1809    5.8812  -13.3023 N   0  0  0  0  0  0  0  0  0  0  0  0
   10.1492    9.9694   -7.5519 H   0  0  0  0  0  0  0  0  0  0  0  0
   10.9555    9.3597   -7.8197 N   0  0  0  0  0  0  0  0  0  0  0  0
   10.8819    8.7750   -8.9705 C   0  0  0  0  0  0  0  0  0  0  0  0
   11.8906    7.9877   -9.3507 N   0  0  0  0  0  0  0  0  0  0  0  0
   11.8587    7.3578  -10.5372 C   0  0  0  0  0  0  0  0  0  0  0  0
   10.7826    7.4922  -11.4226 C   0  0  0  0  0  0  0  0  0  0  0  0
    9.7638    8.3072  -11.0091 C   0  0  0  0  0  0  0  0  0  0  0  0
    8.5796    8.6478  -11.8394 C   0  0  0  0  0  0  0  0  0  0  0  0
    9.8401    8.9192   -9.8056 N   0  0  0  0  0  0  0  0  0  0  0  0
    9.0671    9.5512   -9.4620 H   0  0  0  0  0  0  0  0  0  0  0  0
    7.3519    3.4688  -13.5023 C   0  0  0  0  0  0  0  0  0  0  0  0
    6.1831    3.9911  -13.0073 C   0  0  0  0  0  0  0  0  0  0  0  0
    5.0619    3.2064  -12.7435 C   0  0  0  0  0  0  0  0  0  0  0  0
    5.1454    1.8373  -12.9979 C   0  0  0  0  0  0  0  0  0  0  0  0
    6.3249    1.2901  -13.5014 C   0  0  0  0  0  0  0  0  0  0  0  0
    7.4297    2.0968  -13.7556 C   0  0  0  0  0  0  0  0  0  0  0  0
    6.3326   -0.1189  -13.7360 C   0  0  0  0  0  0  0  0  0  0  0  0
    6.3270   -1.2575  -13.9250 N   0  0  0  0  0  0  0  0  0  0  0  0
 14 15  1  0  0  0
 15 16  2  0  0  0
 16 17  1  0  0  0
 17 18  2  0  0  0
 18 19  1  0  0  0
 19  1  1  0  0  0
  1  2  2  0  0  0
  2  3  1  0  0  0
  3  4  1  0  0  0
  3  5  2  0  0  0
  5  6  1  0  0  0
  6  7  2  0  0  0
  7  8  1  0  0  0
  8 24  1  0  0  0
 24 25  2  0  0  0
 25 26  1  0  0  0
 26 27  2  0  0  0
 27 28  1  0  0  0
 28 30  1  0  0  0
 30 31  3  0  0  0
 28 29  2  0  0  0
  8  9  2  0  0  0
  9 10  1  0  0  0
 10 11  1  0  0  0
 10 12  1  0  0  0
  9 13  1  0  0  0
 19 20  2  0  0  0
 20 21  1  0  0  0
 20 22  1  0  0  0
 22 23  1  0  0  0
 22 16  1  0  0  0
 13  1  1  0  0  0
 13  5  1  0  0  0
 29 24  1  0  0  0
M  END
> <minimizedAffinity>
-9.63429

$$$$
13_1


 31 34  0  0  0  0  0  0  0  0999 V2000
   11.4278    7.5451   -9.4643 C   0  0  0  0  0  0  0  0  0  0  0  0
   12.5865    8.1441   -9.8943 N   0  0  0  0  0  0  0  0  0  0  0  0
   12.7053    8.0705  -11.2126 C   0  0  0  0  0  0  0  0  0  0  0  0
   13.8134    8.6007  -12.0472 C   0  0  0  0  0  0  0  0  0  0  0  0
   11.5908    7.4003  -11.6635 C   0  0  0  0  0  0  0  0  0  0  0  0
   11.2616    7.0585  -12.9050 N   0  0  0  0  0  0  0  0  0  0  0  0
   10.1378    6.3720  -13.1493 C   0  0  0  0  0  0  0  0  0  0  0  0
    9.3286    6.0290  -12.0553 C   0  0  0  0  0  0  0  0  0  0  0  0
    9.6996    6.3988  -10.7848 C   0  0  0  0  0  0  0  0  0  0  0  0
    8.9166    5.9709   -9.7009 N   0  0  0  0  0  0  0  0  0  0  0  0
    7.9500    6.2470   -9.4697 H   0  0  0  0  0  0  0  0  0  0  0  0
    9.3638    5.2784   -9.0304 H   0  0  0  0  0  0  0  0  0  0  0  0
   10.8302    7.0907  -10.5716 N   0  0  0  0  0  0  0  0  0  0  0  0
    9.9814    7.6695   -3.5706 H   0  0  0  0  0  0  0  0  0  0  0  0
   10.6606    7.0363   -4.0516 N   0  0  0  0  0  0  0  0  0  0  0  0
   10.7888    7.1881   -5.3291 C   0  0  0  0  0  0  0  0  0  0  0  0
   11.6458    6.3996   -5.9816 N   0  0  0  0  0  0  0  0  0  0  0  0
   11.8123    6.5191   -7.3096 C   0  0  0  0  0  0  0  0  0  0  0  0
   11.1065    7.4620   -8.0663 C   0  0  0  0  0  0  0  0  0  0  0  0
   10.2370    8.2590   -7.3720 C   0  0  0  0  0  0  0  0  0  0  0  0
    9.4642    9.3744   -7.9773 C   0  0  0  0  0  0  0  0  0  0  0  0
   10.1024    8.1008   -6.0357 N   0  0  0  0  0  0  0  0  0  0  0  0
    9.4373    8.7010   -5.4770 H   0  0  0  0  0  0  0  0  0  0  0  0
    8.1184    5.2987  -12.3878 C   0  0  0  0  0  0  0  0  0  0  0  0
    6.8435    5.7323  -12.1224 C   0  0  0  0  0  0  0  0  0  0  0  0
    5.7128    4.9860  -12.4495 C   0  0  0  0  0  0  0  0  0  0  0  0
    5.8997    3.7512  -13.0713 C   0  0  0  0  0  0  0  0  0  0  0  0
    7.1880    3.2957  -13.3487 C   0  0  0  0  0  0  0  0  0  0  0  0
    8.2996    4.0613  -13.0111 C   0  0  0  0  0  0  0  0  0  0  0  0
    7.2975    2.0225  -13.9870 C   0  0  0  0  0  0  0  0  0  0  0  0
    7.3760    0.9903  -14.4975 N   0  0  0  0  0  0  0  0  0  0  0  0
 14 15  1  0  0  0
 15 16  2  0  0  0
 16 17  1  0  0  0
 17 18  2  0  0  0
 18 19  1  0  0  0
 19  1  1  0  0  0
  1  2  2  0  0  0
  2  3  1  0  0  0
  3  4  1  0  0  0
  3  5  2  0  0  0
  5  6  1  0  0  0
  6  7  2  0  0  0
  7  8  1  0  0  0
  8 24  1  0  0  0
 24 25  2  0  0  0
 25 26  1  0  0  0
 26 27  2  0  0  0
 27 28  1  0  0  0
 28 30  1  0  0  0
 30 31  3  0  0  0
 28 29  2  0  0  0
  8  9  2  0  0  0
  9 10  1  0  0  0
 10 11  1  0  0  0
 10 12  1  0  0  0
  9 13  1  0  0  0
 19 20  2  0  0  0
 20 21  1  0  0  0
 20 22  1  0  0  0
 22 23  1  0  0  0
 22 16  1  0  0  0
 13  1  1  0  0  0
 13  5  1  0  0  0
 29 24  1  0  0  0
M  END
> <minimizedAffinity>
-8.35765

$$$$
