9_0


 24 25  0  0  0  0  0  0  0  0999 V2000
    8.7374    5.1134  -13.3520 C   0  0  0  0  0  0  0  0  0  0  0  0
    7.6654    4.2699  -12.7778 N   0  0  0  0  0  0  0  0  0  0  0  0
    6.5413    4.9003  -12.1629 C   0  0  0  0  0  0  0  0  0  0  0  0
    5.4346    4.3334  -11.9990 O   0  0  0  0  0  0  0  0  0  0  0  0
    6.7822    6.2588  -11.7387 N   0  0  0  0  0  0  0  0  0  0  0  0
    8.0474    6.8506  -11.9467 C   0  0  0  0  0  0  0  0  0  0  0  0
    8.1952    8.0823  -11.9242 O   0  0  0  0  0  0  0  0  0  0  0  0
    9.2902    5.9150  -12.2118 C   0  0  0  0  0  0  0  0  0  0  0  0
    7.7037    3.2323  -12.8169 H   0  0  0  0  0  0  0  0  0  0  0  0
    6.0183    6.7793  -11.2867 H   0  0  0  0  0  0  0  0  0  0  0  0
   11.8293    3.0149  -17.3693 C   0  0  0  0  0  0  0  0  0  0  0  0
   11.1629    3.3100  -16.1158 C   0  0  0  0  0  0  0  0  0  0  0  0
   11.1942    2.7682  -14.8737 C   0  0  0  0  0  0  0  0  0  0  0  0
   10.4699    3.2382  -13.8814 C   0  0  0  0  0  0  0  0  0  0  0  0
    9.6213    4.3877  -14.1943 C   0  0  0  0  0  0  0  0  0  0  0  0
    9.9843    4.6748  -15.9789 S   0  0  0  0  0  0  0  0  0  0  0  0
    9.3418    5.2506  -10.8878 C   0  0  0  0  0  0  0  0  0  0  0  0
    9.4540    5.9671   -9.6479 C   0  0  0  0  0  0  0  0  0  0  0  0
   10.1950    6.9640   -9.3943 O   0  0  0  0  0  0  0  0  0  0  0  0
    8.6690    5.5584   -8.5550 O   0  0  0  0  0  0  0  0  0  0  0  0
   10.3093    6.9265  -12.5346 C   0  0  0  0  0  0  0  0  0  0  0  0
   11.7476    6.7192  -12.5617 C   0  0  0  0  0  0  0  0  0  0  0  0
   12.1848    7.1725  -14.0051 C   0  0  0  0  0  0  0  0  0  0  0  0
   12.5515    7.6487  -11.6917 C   0  0  0  0  0  0  0  0  0  0  0  0
 11 12  1  0  0  0
 12 13  2  0  0  0
 13 14  1  0  0  0
 14 15  2  0  0  0
 15  1  1  0  0  0
  1  2  1  0  0  0
  2  3  1  0  0  0
  3  4  2  0  0  0
  3  5  1  0  0  0
  5  6  1  0  0  0
  6  7  2  0  0  0
  6  8  1  0  0  0
  8 17  1  0  0  0
 17 18  1  0  0  0
 18 19  2  0  0  0
 18 20  1  0  0  0
  8 21  1  0  0  0
 21 22  1  0  0  0
 22 23  1  0  0  0
 22 24  1  0  0  0
 15 16  1  0  0  0
 16 12  1  0  0  0
  8  1  1  0  0  0
  2  9  1  0  0  0
  5 10  1  0  0  0
M  CHG 1  20  -1
M  END
> <minimizedAffinity>
-7.26670

$$$$
9_0


 24 25  0  0  0  0  0  0  0  0999 V2000
    9.1365    1.9767  -15.8132 C   0  0  0  0  0  0  0  0  0  0  0  0
    9.8465    0.7311  -16.1806 N   0  0  0  0  0  0  0  0  0  0  0  0
    9.1824   -0.2289  -17.0032 C   0  0  0  0  0  0  0  0  0  0  0  0
    9.7859   -1.0984  -17.6761 O   0  0  0  0  0  0  0  0  0  0  0  0
    7.7432   -0.1186  -16.9989 N   0  0  0  0  0  0  0  0  0  0  0  0
    7.1128    0.8788  -16.2230 C   0  0  0  0  0  0  0  0  0  0  0  0
    5.9451    1.2312  -16.4504 O   0  0  0  0  0  0  0  0  0  0  0  0
    7.9210    1.5504  -15.0458 C   0  0  0  0  0  0  0  0  0  0  0  0
   10.8173    0.5393  -15.8638 H   0  0  0  0  0  0  0  0  0  0  0  0
    7.1945   -0.7768  -17.5686 H   0  0  0  0  0  0  0  0  0  0  0  0
   12.0692    6.4264  -14.5088 C   0  0  0  0  0  0  0  0  0  0  0  0
   11.4659    5.1095  -14.5751 C   0  0  0  0  0  0  0  0  0  0  0  0
   11.5911    3.9706  -13.8509 C   0  0  0  0  0  0  0  0  0  0  0  0
   10.9087    2.8808  -14.1279 C   0  0  0  0  0  0  0  0  0  0  0  0
    9.9991    2.9658  -15.2702 C   0  0  0  0  0  0  0  0  0  0  0  0
   10.2451    4.7002  -15.8450 S   0  0  0  0  0  0  0  0  0  0  0  0
    8.0606    0.3578  -14.1767 C   0  0  0  0  0  0  0  0  0  0  0  0
    6.9408   -0.3654  -13.6414 C   0  0  0  0  0  0  0  0  0  0  0  0
    6.3301   -0.1505  -12.5515 O   0  0  0  0  0  0  0  0  0  0  0  0
    6.4186   -1.4461  -14.3742 O   0  0  0  0  0  0  0  0  0  0  0  0
    6.9726    2.6045  -14.6515 C   0  0  0  0  0  0  0  0  0  0  0  0
    6.7673    3.1167  -13.3069 C   0  0  0  0  0  0  0  0  0  0  0  0
    7.4395    4.5408  -13.3199 C   0  0  0  0  0  0  0  0  0  0  0  0
    5.3428    3.4532  -12.9535 C   0  0  0  0  0  0  0  0  0  0  0  0
 11 12  1  0  0  0
 12 13  2  0  0  0
 13 14  1  0  0  0
 14 15  2  0  0  0
 15  1  1  0  0  0
  1  2  1  0  0  0
  2  3  1  0  0  0
  3  4  2  0  0  0
  3  5  1  0  0  0
  5  6  1  0  0  0
  6  7  2  0  0  0
  6  8  1  0  0  0
  8 17  1  0  0  0
 17 18  1  0  0  0
 18 19  2  0  0  0
 18 20  1  0  0  0
  8 21  1  0  0  0
 21 22  1  0  0  0
 22 23  1  0  0  0
 22 24  1  0  0  0
 15 16  1  0  0  0
 16 12  1  0  0  0
  8  1  1  0  0  0
  2  9  1  0  0  0
  5 10  1  0  0  0
M  CHG 1  20  -1
M  END
> <minimizedAffinity>
-6.90054

$$$$
9_0


 24 25  0  0  0  0  0  0  0  0999 V2000
    7.8063    2.6100  -13.4060 C   0  0  0  0  0  0  0  0  0  0  0  0
    6.4170    2.1051  -13.3339 N   0  0  0  0  0  0  0  0  0  0  0  0
    6.1885    0.6959  -13.3672 C   0  0  0  0  0  0  0  0  0  0  0  0
    5.1416    0.1548  -12.9380 O   0  0  0  0  0  0  0  0  0  0  0  0
    7.2712   -0.0666  -13.9414 N   0  0  0  0  0  0  0  0  0  0  0  0
    8.4291    0.5920  -14.4104 C   0  0  0  0  0  0  0  0  0  0  0  0
    9.4949   -0.0197  -14.5808 O   0  0  0  0  0  0  0  0  0  0  0  0
    8.3518    2.1374  -14.7202 C   0  0  0  0  0  0  0  0  0  0  0  0
    5.6038    2.7467  -13.2515 H   0  0  0  0  0  0  0  0  0  0  0  0
    7.1798   -1.0899  -13.9997 H   0  0  0  0  0  0  0  0  0  0  0  0
    9.2539    7.6459  -11.7793 C   0  0  0  0  0  0  0  0  0  0  0  0
    8.5582    6.4728  -12.2716 C   0  0  0  0  0  0  0  0  0  0  0  0
    7.3029    6.2339  -12.7238 C   0  0  0  0  0  0  0  0  0  0  0  0
    6.9125    5.0430  -13.1232 C   0  0  0  0  0  0  0  0  0  0  0  0
    7.9159    3.9811  -13.0521 C   0  0  0  0  0  0  0  0  0  0  0  0
    9.3862    4.8689  -12.3817 S   0  0  0  0  0  0  0  0  0  0  0  0
    7.4034    2.0786  -15.8579 C   0  0  0  0  0  0  0  0  0  0  0  0
    7.4695    1.0827  -16.8910 C   0  0  0  0  0  0  0  0  0  0  0  0
    8.3254    0.9881  -17.8214 O   0  0  0  0  0  0  0  0  0  0  0  0
    6.4962    0.0679  -16.9180 O   0  0  0  0  0  0  0  0  0  0  0  0
    9.7703    2.4153  -14.9970 C   0  0  0  0  0  0  0  0  0  0  0  0
   10.3057    3.0413  -16.1943 C   0  0  0  0  0  0  0  0  0  0  0  0
   10.1516    4.5869  -15.9344 C   0  0  0  0  0  0  0  0  0  0  0  0
   11.7937    2.9090  -16.3832 C   0  0  0  0  0  0  0  0  0  0  0  0
 11 12  1  0  0  0
 12 13  2  0  0  0
 13 14  1  0  0  0
 14 15  2  0  0  0
 15  1  1  0  0  0
  1  2  1  0  0  0
  2  3  1  0  0  0
  3  4  2  0  0  0
  3  5  1  0  0  0
  5  6  1  0  0  0
  6  7  2  0  0  0
  6  8  1  0  0  0
  8 17  1  0  0  0
 17 18  1  0  0  0
 18 19  2  0  0  0
 18 20  1  0  0  0
  8 21  1  0  0  0
 21 22  1  0  0  0
 22 23  1  0  0  0
 22 24  1  0  0  0
 15 16  1  0  0  0
 16 12  1  0  0  0
  8  1  1  0  0  0
  2  9  1  0  0  0
  5 10  1  0  0  0
M  CHG 1  20  -1
M  END
> <minimizedAffinity>
-6.33110

$$$$
9_0


 24 25  0  0  0  0  0  0  0  0999 V2000
    8.5361    2.7317  -16.3061 C   0  0  0  0  0  0  0  0  0  0  0  0
    9.4897    2.1119  -17.2531 N   0  0  0  0  0  0  0  0  0  0  0  0
    8.9873    1.4932  -18.4380 C   0  0  0  0  0  0  0  0  0  0  0  0
    9.6840    1.2908  -19.4611 O   0  0  0  0  0  0  0  0  0  0  0  0
    7.5966    1.1136  -18.3644 N   0  0  0  0  0  0  0  0  0  0  0  0
    6.8566    1.3640  -17.1879 C   0  0  0  0  0  0  0  0  0  0  0  0
    5.6161    1.3803  -17.1972 O   0  0  0  0  0  0  0  0  0  0  0  0
    7.6358    1.6266  -15.8411 C   0  0  0  0  0  0  0  0  0  0  0  0
   10.5149    2.1216  -17.0842 H   0  0  0  0  0  0  0  0  0  0  0  0
    7.1628    0.6617  -19.1807 H   0  0  0  0  0  0  0  0  0  0  0  0
   11.6567    6.2159  -13.4383 C   0  0  0  0  0  0  0  0  0  0  0  0
   10.6574    5.2660  -13.8871 C   0  0  0  0  0  0  0  0  0  0  0  0
    9.6080    4.6426  -13.2976 C   0  0  0  0  0  0  0  0  0  0  0  0
    8.8340    3.7998  -13.9463 C   0  0  0  0  0  0  0  0  0  0  0  0
    9.1704    3.5701  -15.3511 C   0  0  0  0  0  0  0  0  0  0  0  0
   10.6432    4.6535  -15.5886 S   0  0  0  0  0  0  0  0  0  0  0  0
    8.2465    0.2852  -15.6842 C   0  0  0  0  0  0  0  0  0  0  0  0
    9.6349    0.0799  -15.3779 C   0  0  0  0  0  0  0  0  0  0  0  0
   10.2908    0.5548  -14.4025 O   0  0  0  0  0  0  0  0  0  0  0  0
   10.4025   -0.7385  -16.2256 O   0  0  0  0  0  0  0  0  0  0  0  0
    6.5143    1.9990  -14.9637 C   0  0  0  0  0  0  0  0  0  0  0  0
    6.0862    1.2911  -13.7688 C   0  0  0  0  0  0  0  0  0  0  0  0
    5.5823    2.4239  -12.7979 C   0  0  0  0  0  0  0  0  0  0  0  0
    4.8484    0.4481  -13.9251 C   0  0  0  0  0  0  0  0  0  0  0  0
 11 12  1  0  0  0
 12 13  2  0  0  0
 13 14  1  0  0  0
 14 15  2  0  0  0
 15  1  1  0  0  0
  1  2  1  0  0  0
  2  3  1  0  0  0
  3  4  2  0  0  0
  3  5  1  0  0  0
  5  6  1  0  0  0
  6  7  2  0  0  0
  6  8  1  0  0  0
  8 17  1  0  0  0
 17 18  1  0  0  0
 18 19  2  0  0  0
 18 20  1  0  0  0
  8 21  1  0  0  0
 21 22  1  0  0  0
 22 23  1  0  0  0
 22 24  1  0  0  0
 15 16  1  0  0  0
 16 12  1  0  0  0
  8  1  1  0  0  0
  2  9  1  0  0  0
  5 10  1  0  0  0
M  CHG 1  20  -1
M  END
> <minimizedAffinity>
-5.88745

$$$$
9_0


 24 25  0  0  0  0  0  0  0  0999 V2000
    9.2036    2.1577  -14.4230 C   0  0  0  0  0  0  0  0  0  0  0  0
    7.8142    1.9059  -13.9798 N   0  0  0  0  0  0  0  0  0  0  0  0
    7.3183    0.5668  -13.9792 C   0  0  0  0  0  0  0  0  0  0  0  0
    6.3408    0.1917  -13.2886 O   0  0  0  0  0  0  0  0  0  0  0  0
    8.0397   -0.3328  -14.8474 N   0  0  0  0  0  0  0  0  0  0  0  0
    9.1339    0.1407  -15.6044 C   0  0  0  0  0  0  0  0  0  0  0  0
    9.9766   -0.6377  -16.0768 O   0  0  0  0  0  0  0  0  0  0  0  0
    9.2755    1.6934  -15.8469 C   0  0  0  0  0  0  0  0  0  0  0  0
    7.1922    2.6749  -13.6614 H   0  0  0  0  0  0  0  0  0  0  0  0
    7.7407   -1.3160  -14.9004 H   0  0  0  0  0  0  0  0  0  0  0  0
   11.9673    6.7007  -13.0719 C   0  0  0  0  0  0  0  0  0  0  0  0
   10.9577    5.7211  -13.4236 C   0  0  0  0  0  0  0  0  0  0  0  0
    9.6158    5.7660  -13.6098 C   0  0  0  0  0  0  0  0  0  0  0  0
    8.9134    4.7022  -13.9338 C   0  0  0  0  0  0  0  0  0  0  0  0
    9.6660    3.4570  -14.0835 C   0  0  0  0  0  0  0  0  0  0  0  0
   11.3929    3.9911  -13.7206 S   0  0  0  0  0  0  0  0  0  0  0  0
    8.0641    1.8898  -16.6783 C   0  0  0  0  0  0  0  0  0  0  0  0
    7.9696    1.4699  -18.0487 C   0  0  0  0  0  0  0  0  0  0  0  0
    7.7953    0.2934  -18.4876 O   0  0  0  0  0  0  0  0  0  0  0  0
    8.0727    2.4382  -19.0633 O   0  0  0  0  0  0  0  0  0  0  0  0
   10.5940    1.7325  -16.4997 C   0  0  0  0  0  0  0  0  0  0  0  0
   11.3674    2.9248  -16.8038 C   0  0  0  0  0  0  0  0  0  0  0  0
   12.3797    2.4651  -17.9190 C   0  0  0  0  0  0  0  0  0  0  0  0
   10.6140    4.0225  -17.5072 C   0  0  0  0  0  0  0  0  0  0  0  0
 11 12  1  0  0  0
 12 13  2  0  0  0
 13 14  1  0  0  0
 14 15  2  0  0  0
 15  1  1  0  0  0
  1  2  1  0  0  0
  2  3  1  0  0  0
  3  4  2  0  0  0
  3  5  1  0  0  0
  5  6  1  0  0  0
  6  7  2  0  0  0
  6  8  1  0  0  0
  8 17  1  0  0  0
 17 18  1  0  0  0
 18 19  2  0  0  0
 18 20  1  0  0  0
  8 21  1  0  0  0
 21 22  1  0  0  0
 22 23  1  0  0  0
 22 24  1  0  0  0
 15 16  1  0  0  0
 16 12  1  0  0  0
  8  1  1  0  0  0
  2  9  1  0  0  0
  5 10  1  0  0  0
M  CHG 1  20  -1
M  END
> <minimizedAffinity>
-5.86772

$$$$
