9_1


 29 32  0  0  0  0  0  0  0  0999 V2000
   13.0904    9.1212   -7.3145 N   0  0  0  0  0  0  0  0  0  0  0  0
   12.4796    8.4520   -8.4051 C   0  0  0  0  0  0  0  0  0  0  0  0
   12.9806    8.5630   -9.6508 N   0  0  0  0  0  0  0  0  0  0  0  0
   12.3835    7.9161  -10.6727 C   0  0  0  0  0  0  0  0  0  0  0  0
   11.2871    7.1639  -10.4278 N   0  0  0  0  0  0  0  0  0  0  0  0
   10.7705    7.0400   -9.1903 C   0  0  0  0  0  0  0  0  0  0  0  0
    9.6900    6.3557   -8.6713 C   0  0  0  0  0  0  0  0  0  0  0  0
    9.6287    6.5876   -7.3246 C   0  0  0  0  0  0  0  0  0  0  0  0
   10.6543    7.4028   -7.0107 N   0  0  0  0  0  0  0  0  0  0  0  0
   11.3616    7.6877   -8.1432 C   0  0  0  0  0  0  0  0  0  0  0  0
   12.6033    9.8643   -6.7635 H   0  0  0  0  0  0  0  0  0  0  0  0
   14.0657    8.8667   -7.0447 H   0  0  0  0  0  0  0  0  0  0  0  0
   11.0144    7.9303   -5.7282 C   0  0  0  0  0  0  0  0  0  0  0  0
   11.5571    7.0150   -4.8240 C   0  0  0  0  0  0  0  0  0  0  0  0
   11.9217    7.4754   -3.5718 C   0  0  0  0  0  0  0  0  0  0  0  0
   11.7457    8.8167   -3.2389 C   0  0  0  0  0  0  0  0  0  0  0  0
   11.2036    9.7190   -4.1489 C   0  0  0  0  0  0  0  0  0  0  0  0
   10.8446    9.2484   -5.3924 C   0  0  0  0  0  0  0  0  0  0  0  0
   10.3155   10.1152   -6.2898 F   0  0  0  0  0  0  0  0  0  0  0  0
    8.8001    5.5284   -9.5123 C   0  0  0  0  0  0  0  0  0  0  0  0
    8.4751    4.4000   -9.1059 O   0  0  0  0  0  0  0  0  0  0  0  0
    8.3513    6.0573  -10.7527 N   0  0  0  0  0  0  0  0  0  0  0  0
    8.6920    7.0344  -11.0020 H   0  0  0  0  0  0  0  0  0  0  0  0
    7.4773    5.3429  -11.6608 C   0  0  0  0  0  0  0  0  0  0  0  0
    8.1988    4.4931  -12.6257 C   0  0  0  0  0  0  0  0  0  0  0  0
    9.5554    4.4735  -12.9101 C   0  0  0  0  0  0  0  0  0  0  0  0
    9.7034    3.5046  -13.8777 C   0  0  0  0  0  0  0  0  0  0  0  0
    8.4750    2.9858  -14.1401 C   0  0  0  0  0  0  0  0  0  0  0  0
    7.6225    3.5990  -13.3793 O   0  0  0  0  0  0  0  0  0  0  0  0
  1  2  1  0  0  0
  2  3  2  0  0  0
  3  4  1  0  0  0
  4  5  2  0  0  0
  5  6  1  0  0  0
  6  7  1  0  0  0
  7 20  1  0  0  0
 20 21  2  0  0  0
 20 22  1  0  0  0
 22 24  1  0  0  0
 24 25  1  0  0  0
 25 26  2  0  0  0
 26 27  1  0  0  0
 27 28  2  0  0  0
 28 29  1  0  0  0
  7  8  2  0  0  0
  8  9  1  0  0  0
  9 13  1  0  0  0
 13 14  2  0  0  0
 14 15  1  0  0  0
 15 16  2  0  0  0
 16 17  1  0  0  0
 17 18  2  0  0  0
 18 19  1  0  0  0
  9 10  1  0  0  0
 10  2  1  0  0  0
 10  6  2  0  0  0
 29 25  1  0  0  0
 18 13  1  0  0  0
  1 11  1  0  0  0
  1 12  1  0  0  0
 22 23  1  0  0  0
M  END
> <minimizedAffinity>
-9.21559

$$$$
9_1


 29 32  0  0  0  0  0  0  0  0999 V2000
   12.5740    8.4224   -9.6214 N   0  0  0  0  0  0  0  0  0  0  0  0
   11.9754    7.7405  -10.7109 C   0  0  0  0  0  0  0  0  0  0  0  0
   12.5250    7.7873  -11.9401 N   0  0  0  0  0  0  0  0  0  0  0  0
   11.9384    7.1295  -12.9612 C   0  0  0  0  0  0  0  0  0  0  0  0
   10.8037    6.4313  -12.7321 N   0  0  0  0  0  0  0  0  0  0  0  0
   10.2383    6.3718  -11.5113 C   0  0  0  0  0  0  0  0  0  0  0  0
    9.1124    5.7503  -11.0103 C   0  0  0  0  0  0  0  0  0  0  0  0
    9.0125    6.0316   -9.6753 C   0  0  0  0  0  0  0  0  0  0  0  0
   10.0592    6.8154   -9.3510 N   0  0  0  0  0  0  0  0  0  0  0  0
   10.8179    7.0315  -10.4654 C   0  0  0  0  0  0  0  0  0  0  0  0
   12.0988    9.2035   -9.1143 H   0  0  0  0  0  0  0  0  0  0  0  0
   13.5275    8.1384   -9.3071 H   0  0  0  0  0  0  0  0  0  0  0  0
   10.3947    7.3727   -8.0745 C   0  0  0  0  0  0  0  0  0  0  0  0
   11.0365    6.5102   -7.1833 C   0  0  0  0  0  0  0  0  0  0  0  0
   11.3821    7.0011   -5.9374 C   0  0  0  0  0  0  0  0  0  0  0  0
   11.0907    8.3204   -5.5977 C   0  0  0  0  0  0  0  0  0  0  0  0
   10.4505    9.1700   -6.4946 C   0  0  0  0  0  0  0  0  0  0  0  0
   10.1116    8.6695   -7.7321 C   0  0  0  0  0  0  0  0  0  0  0  0
    9.4879    9.4849   -8.6167 F   0  0  0  0  0  0  0  0  0  0  0  0
    8.2195    4.9306  -11.8555 C   0  0  0  0  0  0  0  0  0  0  0  0
    7.0059    4.9038  -11.5899 O   0  0  0  0  0  0  0  0  0  0  0  0
    8.7853    4.2056  -12.9390 N   0  0  0  0  0  0  0  0  0  0  0  0
    9.8367    4.3006  -13.0748 H   0  0  0  0  0  0  0  0  0  0  0  0
    8.0132    3.3703  -13.8362 C   0  0  0  0  0  0  0  0  0  0  0  0
    8.7610    2.2070  -14.3473 C   0  0  0  0  0  0  0  0  0  0  0  0
   10.0965    2.1341  -14.7117 C   0  0  0  0  0  0  0  0  0  0  0  0
   10.2855    0.8312  -15.1165 C   0  0  0  0  0  0  0  0  0  0  0  0
    9.1003    0.1785  -14.9891 C   0  0  0  0  0  0  0  0  0  0  0  0
    8.2342    1.0291  -14.5333 O   0  0  0  0  0  0  0  0  0  0  0  0
  1  2  1  0  0  0
  2  3  2  0  0  0
  3  4  1  0  0  0
  4  5  2  0  0  0
  5  6  1  0  0  0
  6  7  1  0  0  0
  7 20  1  0  0  0
 20 21  2  0  0  0
 20 22  1  0  0  0
 22 24  1  0  0  0
 24 25  1  0  0  0
 25 26  2  0  0  0
 26 27  1  0  0  0
 27 28  2  0  0  0
 28 29  1  0  0  0
  7  8  2  0  0  0
  8  9  1  0  0  0
  9 13  1  0  0  0
 13 14  2  0  0  0
 14 15  1  0  0  0
 15 16  2  0  0  0
 16 17  1  0  0  0
 17 18  2  0  0  0
 18 19  1  0  0  0
  9 10  1  0  0  0
 10  2  1  0  0  0
 10  6  2  0  0  0
 29 25  1  0  0  0
 18 13  1  0  0  0
  1 11  1  0  0  0
  1 12  1  0  0  0
 22 23  1  0  0  0
M  END
> <minimizedAffinity>
-8.97184

$$$$
9_1


 29 32  0  0  0  0  0  0  0  0999 V2000
    8.2675   -0.3470  -15.4219 N   0  0  0  0  0  0  0  0  0  0  0  0
    8.8709    0.7988  -14.8446 C   0  0  0  0  0  0  0  0  0  0  0  0
   10.2102    0.8887  -14.7282 N   0  0  0  0  0  0  0  0  0  0  0  0
   10.7620    1.9891  -14.1769 C   0  0  0  0  0  0  0  0  0  0  0  0
    9.9575    2.9876  -13.7486 N   0  0  0  0  0  0  0  0  0  0  0  0
    8.6168    2.9176  -13.8556 C   0  0  0  0  0  0  0  0  0  0  0  0
    7.5861    3.7679  -13.5099 C   0  0  0  0  0  0  0  0  0  0  0  0
    6.3988    3.1814  -13.8528 C   0  0  0  0  0  0  0  0  0  0  0  0
    6.6861    1.9856  -14.4029 N   0  0  0  0  0  0  0  0  0  0  0  0
    8.0402    1.8111  -14.4111 C   0  0  0  0  0  0  0  0  0  0  0  0
    7.6303   -0.9798  -14.8866 H   0  0  0  0  0  0  0  0  0  0  0  0
    8.4624   -0.5741  -16.4214 H   0  0  0  0  0  0  0  0  0  0  0  0
    5.7825    1.0005  -14.9185 C   0  0  0  0  0  0  0  0  0  0  0  0
    5.0602    0.2790  -13.9657 C   0  0  0  0  0  0  0  0  0  0  0  0
    4.1736   -0.6836  -14.4131 C   0  0  0  0  0  0  0  0  0  0  0  0
    4.0180   -0.9138  -15.7783 C   0  0  0  0  0  0  0  0  0  0  0  0
    4.7438   -0.1881  -16.7178 C   0  0  0  0  0  0  0  0  0  0  0  0
    5.6233    0.7677  -16.2599 C   0  0  0  0  0  0  0  0  0  0  0  0
    6.3372    1.4829  -17.1629 F   0  0  0  0  0  0  0  0  0  0  0  0
    7.8237    5.0821  -12.8775 C   0  0  0  0  0  0  0  0  0  0  0  0
    6.8631    5.8570  -12.7339 O   0  0  0  0  0  0  0  0  0  0  0  0
    9.1424    5.4068  -12.4587 N   0  0  0  0  0  0  0  0  0  0  0  0
    9.8894    4.6685  -12.6312 H   0  0  0  0  0  0  0  0  0  0  0  0
    9.4980    6.6612  -11.8271 C   0  0  0  0  0  0  0  0  0  0  0  0
    9.7115    6.5482  -10.3727 C   0  0  0  0  0  0  0  0  0  0  0  0
    9.2313    5.5802   -9.5043 C   0  0  0  0  0  0  0  0  0  0  0  0
    9.7190    5.9371   -8.2668 C   0  0  0  0  0  0  0  0  0  0  0  0
   10.4537    7.0703   -8.4186 C   0  0  0  0  0  0  0  0  0  0  0  0
   10.4197    7.3912   -9.6746 O   0  0  0  0  0  0  0  0  0  0  0  0
  1  2  1  0  0  0
  2  3  2  0  0  0
  3  4  1  0  0  0
  4  5  2  0  0  0
  5  6  1  0  0  0
  6  7  1  0  0  0
  7 20  1  0  0  0
 20 21  2  0  0  0
 20 22  1  0  0  0
 22 24  1  0  0  0
 24 25  1  0  0  0
 25 26  2  0  0  0
 26 27  1  0  0  0
 27 28  2  0  0  0
 28 29  1  0  0  0
  7  8  2  0  0  0
  8  9  1  0  0  0
  9 13  1  0  0  0
 13 14  2  0  0  0
 14 15  1  0  0  0
 15 16  2  0  0  0
 16 17  1  0  0  0
 17 18  2  0  0  0
 18 19  1  0  0  0
  9 10  1  0  0  0
 10  2  1  0  0  0
 10  6  2  0  0  0
 29 25  1  0  0  0
 18 13  1  0  0  0
  1 11  1  0  0  0
  1 12  1  0  0  0
 22 23  1  0  0  0
M  END
> <minimizedAffinity>
-8.68665

$$$$
9_1


 29 32  0  0  0  0  0  0  0  0999 V2000
    8.3121    3.7428  -14.5894 N   0  0  0  0  0  0  0  0  0  0  0  0
    8.4243    4.6254  -13.4854 C   0  0  0  0  0  0  0  0  0  0  0  0
    7.3808    4.8323  -12.6587 N   0  0  0  0  0  0  0  0  0  0  0  0
    7.5113    5.6754  -11.6139 C   0  0  0  0  0  0  0  0  0  0  0  0
    8.6927    6.3012  -11.4138 N   0  0  0  0  0  0  0  0  0  0  0  0
    9.7477    6.1085  -12.2282 C   0  0  0  0  0  0  0  0  0  0  0  0
   11.0354    6.6046  -12.2558 C   0  0  0  0  0  0  0  0  0  0  0  0
   11.6933    6.0602  -13.3244 C   0  0  0  0  0  0  0  0  0  0  0  0
   10.8292    5.2387  -13.9515 N   0  0  0  0  0  0  0  0  0  0  0  0
    9.6343    5.2585  -13.2912 C   0  0  0  0  0  0  0  0  0  0  0  0
    8.4032    4.0636  -15.5803 H   0  0  0  0  0  0  0  0  0  0  0  0
    8.1317    2.7303  -14.4135 H   0  0  0  0  0  0  0  0  0  0  0  0
   11.0460    4.4408  -15.1216 C   0  0  0  0  0  0  0  0  0  0  0  0
   11.0199    5.1251  -16.3386 C   0  0  0  0  0  0  0  0  0  0  0  0
   11.2248    4.3992  -17.4978 C   0  0  0  0  0  0  0  0  0  0  0  0
   11.4492    3.0257  -17.4351 C   0  0  0  0  0  0  0  0  0  0  0  0
   11.4727    2.3552  -16.2160 C   0  0  0  0  0  0  0  0  0  0  0  0
   11.2675    3.0891  -15.0688 C   0  0  0  0  0  0  0  0  0  0  0  0
   11.2878    2.4502  -13.8738 F   0  0  0  0  0  0  0  0  0  0  0  0
   11.5347    7.5639  -11.2488 C   0  0  0  0  0  0  0  0  0  0  0  0
   12.7143    7.9474  -11.3241 O   0  0  0  0  0  0  0  0  0  0  0  0
   10.6449    8.0097  -10.2342 N   0  0  0  0  0  0  0  0  0  0  0  0
    9.6565    7.6160  -10.2646 H   0  0  0  0  0  0  0  0  0  0  0  0
   11.0177    8.9478   -9.1951 C   0  0  0  0  0  0  0  0  0  0  0  0
   11.0014    8.3638   -7.8414 C   0  0  0  0  0  0  0  0  0  0  0  0
   11.2626    7.0555   -7.4645 C   0  0  0  0  0  0  0  0  0  0  0  0
   11.1128    7.0417   -6.0955 C   0  0  0  0  0  0  0  0  0  0  0  0
   10.7774    8.2978   -5.6996 C   0  0  0  0  0  0  0  0  0  0  0  0
   10.7240    9.0397   -6.7617 O   0  0  0  0  0  0  0  0  0  0  0  0
  1  2  1  0  0  0
  2  3  2  0  0  0
  3  4  1  0  0  0
  4  5  2  0  0  0
  5  6  1  0  0  0
  6  7  1  0  0  0
  7 20  1  0  0  0
 20 21  2  0  0  0
 20 22  1  0  0  0
 22 24  1  0  0  0
 24 25  1  0  0  0
 25 26  2  0  0  0
 26 27  1  0  0  0
 27 28  2  0  0  0
 28 29  1  0  0  0
  7  8  2  0  0  0
  8  9  1  0  0  0
  9 13  1  0  0  0
 13 14  2  0  0  0
 14 15  1  0  0  0
 15 16  2  0  0  0
 16 17  1  0  0  0
 17 18  2  0  0  0
 18 19  1  0  0  0
  9 10  1  0  0  0
 10  2  1  0  0  0
 10  6  2  0  0  0
 29 25  1  0  0  0
 18 13  1  0  0  0
  1 11  1  0  0  0
  1 12  1  0  0  0
 22 23  1  0  0  0
M  END
> <minimizedAffinity>
-8.31410

$$$$
9_1


 29 32  0  0  0  0  0  0  0  0999 V2000
    6.9007    2.1475  -14.7397 N   0  0  0  0  0  0  0  0  0  0  0  0
    7.0889    3.2802  -13.9079 C   0  0  0  0  0  0  0  0  0  0  0  0
    6.0693    3.7815  -13.1838 N   0  0  0  0  0  0  0  0  0  0  0  0
    6.2723    4.8590  -12.3983 C   0  0  0  0  0  0  0  0  0  0  0  0
    7.5014    5.4200  -12.3512 N   0  0  0  0  0  0  0  0  0  0  0  0
    8.5337    4.9346  -13.0670 C   0  0  0  0  0  0  0  0  0  0  0  0
    9.8571    5.3019  -13.2031 C   0  0  0  0  0  0  0  0  0  0  0  0
   10.4640    4.4425  -14.0774 C   0  0  0  0  0  0  0  0  0  0  0  0
    9.5334    3.5549  -14.4787 N   0  0  0  0  0  0  0  0  0  0  0  0
    8.3471    3.8442  -13.8679 C   0  0  0  0  0  0  0  0  0  0  0  0
    7.0130    2.1849  -15.7785 H   0  0  0  0  0  0  0  0  0  0  0  0
    6.6397    1.2358  -14.3044 H   0  0  0  0  0  0  0  0  0  0  0  0
    9.6797    2.4599  -15.3910 C   0  0  0  0  0  0  0  0  0  0  0  0
   10.0064    1.2292  -14.8176 C   0  0  0  0  0  0  0  0  0  0  0  0
   10.1580    0.1402  -15.6566 C   0  0  0  0  0  0  0  0  0  0  0  0
    9.9863    0.2846  -17.0315 C   0  0  0  0  0  0  0  0  0  0  0  0
    9.6610    1.5166  -17.5907 C   0  0  0  0  0  0  0  0  0  0  0  0
    9.5126    2.5933  -16.7450 C   0  0  0  0  0  0  0  0  0  0  0  0
    9.1955    3.7996  -17.2747 F   0  0  0  0  0  0  0  0  0  0  0  0
   10.4369    6.4519  -12.4785 C   0  0  0  0  0  0  0  0  0  0  0  0
   11.4974    6.9466  -12.8965 O   0  0  0  0  0  0  0  0  0  0  0  0
    9.7577    6.9460  -11.3322 N   0  0  0  0  0  0  0  0  0  0  0  0
    8.8574    6.4461  -11.0630 H   0  0  0  0  0  0  0  0  0  0  0  0
   10.2266    8.0661  -10.5420 C   0  0  0  0  0  0  0  0  0  0  0  0
   10.6218    7.6948   -9.1710 C   0  0  0  0  0  0  0  0  0  0  0  0
   10.2079    6.6053   -8.4205 C   0  0  0  0  0  0  0  0  0  0  0  0
   10.8717    6.7259   -7.2198 C   0  0  0  0  0  0  0  0  0  0  0  0
   11.6401    7.8454   -7.2783 C   0  0  0  0  0  0  0  0  0  0  0  0
   11.4595    8.3812   -8.4452 O   0  0  0  0  0  0  0  0  0  0  0  0
  1  2  1  0  0  0
  2  3  2  0  0  0
  3  4  1  0  0  0
  4  5  2  0  0  0
  5  6  1  0  0  0
  6  7  1  0  0  0
  7 20  1  0  0  0
 20 21  2  0  0  0
 20 22  1  0  0  0
 22 24  1  0  0  0
 24 25  1  0  0  0
 25 26  2  0  0  0
 26 27  1  0  0  0
 27 28  2  0  0  0
 28 29  1  0  0  0
  7  8  2  0  0  0
  8  9  1  0  0  0
  9 13  1  0  0  0
 13 14  2  0  0  0
 14 15  1  0  0  0
 15 16  2  0  0  0
 16 17  1  0  0  0
 17 18  2  0  0  0
 18 19  1  0  0  0
  9 10  1  0  0  0
 10  2  1  0  0  0
 10  6  2  0  0  0
 29 25  1  0  0  0
 18 13  1  0  0  0
  1 11  1  0  0  0
  1 12  1  0  0  0
 22 23  1  0  0  0
M  END
> <minimizedAffinity>
-8.20601

$$$$
9_1


 29 32  0  0  0  0  0  0  0  0999 V2000
    6.6102    0.3574  -14.9207 N   0  0  0  0  0  0  0  0  0  0  0  0
    6.4711    1.4678  -14.0501 C   0  0  0  0  0  0  0  0  0  0  0  0
    5.4753    1.5134  -13.1437 N   0  0  0  0  0  0  0  0  0  0  0  0
    5.3635    2.5794  -12.3249 C   0  0  0  0  0  0  0  0  0  0  0  0
    6.2571    3.5885  -12.4286 N   0  0  0  0  0  0  0  0  0  0  0  0
    7.2594    3.5626  -13.3276 C   0  0  0  0  0  0  0  0  0  0  0  0
    8.2839    4.4331  -13.6402 C   0  0  0  0  0  0  0  0  0  0  0  0
    9.0243    3.8937  -14.6561 C   0  0  0  0  0  0  0  0  0  0  0  0
    8.4696    2.7070  -14.9706 N   0  0  0  0  0  0  0  0  0  0  0  0
    7.3884    2.4915  -14.1651 C   0  0  0  0  0  0  0  0  0  0  0  0
    6.5203    0.4394  -15.9591 H   0  0  0  0  0  0  0  0  0  0  0  0
    6.8109   -0.5830  -14.5158 H   0  0  0  0  0  0  0  0  0  0  0  0
    8.8817    1.7662  -15.9695 C   0  0  0  0  0  0  0  0  0  0  0  0
    8.3236    1.9411  -17.2376 C   0  0  0  0  0  0  0  0  0  0  0  0
    8.6904    1.0586  -18.2373 C   0  0  0  0  0  0  0  0  0  0  0  0
    9.5919    0.0307  -17.9698 C   0  0  0  0  0  0  0  0  0  0  0  0
   10.1410   -0.1330  -16.7017 C   0  0  0  0  0  0  0  0  0  0  0  0
    9.7680    0.7521  -15.7147 C   0  0  0  0  0  0  0  0  0  0  0  0
   10.2946    0.6057  -14.4747 F   0  0  0  0  0  0  0  0  0  0  0  0
    8.4730    5.7176  -12.9345 C   0  0  0  0  0  0  0  0  0  0  0  0
    7.5005    6.4821  -12.8172 O   0  0  0  0  0  0  0  0  0  0  0  0
    9.7603    6.0266  -12.4178 N   0  0  0  0  0  0  0  0  0  0  0  0
   10.5212    5.2993  -12.5758 H   0  0  0  0  0  0  0  0  0  0  0  0
   10.0675    7.2517  -11.7081 C   0  0  0  0  0  0  0  0  0  0  0  0
   10.2221    7.0664  -10.2536 C   0  0  0  0  0  0  0  0  0  0  0  0
   11.0166    7.7847   -9.3735 C   0  0  0  0  0  0  0  0  0  0  0  0
   10.7944    7.2101   -8.1417 C   0  0  0  0  0  0  0  0  0  0  0  0
    9.9035    6.1974   -8.3080 C   0  0  0  0  0  0  0  0  0  0  0  0
    9.5963    6.1518   -9.5670 O   0  0  0  0  0  0  0  0  0  0  0  0
  1  2  1  0  0  0
  2  3  2  0  0  0
  3  4  1  0  0  0
  4  5  2  0  0  0
  5  6  1  0  0  0
  6  7  1  0  0  0
  7 20  1  0  0  0
 20 21  2  0  0  0
 20 22  1  0  0  0
 22 24  1  0  0  0
 24 25  1  0  0  0
 25 26  2  0  0  0
 26 27  1  0  0  0
 27 28  2  0  0  0
 28 29  1  0  0  0
  7  8  2  0  0  0
  8  9  1  0  0  0
  9 13  1  0  0  0
 13 14  2  0  0  0
 14 15  1  0  0  0
 15 16  2  0  0  0
 16 17  1  0  0  0
 17 18  2  0  0  0
 18 19  1  0  0  0
  9 10  1  0  0  0
 10  2  1  0  0  0
 10  6  2  0  0  0
 29 25  1  0  0  0
 18 13  1  0  0  0
  1 11  1  0  0  0
  1 12  1  0  0  0
 22 23  1  0  0  0
M  END
> <minimizedAffinity>
-8.06291

$$$$
9_1


 29 32  0  0  0  0  0  0  0  0999 V2000
    6.6525    1.3851  -16.7222 N   0  0  0  0  0  0  0  0  0  0  0  0
    7.8848    1.9720  -17.1060 C   0  0  0  0  0  0  0  0  0  0  0  0
    8.2258    2.0730  -18.4055 N   0  0  0  0  0  0  0  0  0  0  0  0
    9.4027    2.6365  -18.7470 C   0  0  0  0  0  0  0  0  0  0  0  0
   10.2236    3.0924  -17.7744 N   0  0  0  0  0  0  0  0  0  0  0  0
    9.9017    3.0011  -16.4699 C   0  0  0  0  0  0  0  0  0  0  0  0
   10.5354    3.3747  -15.3021 C   0  0  0  0  0  0  0  0  0  0  0  0
    9.7393    3.0362  -14.2425 C   0  0  0  0  0  0  0  0  0  0  0  0
    8.6283    2.4615  -14.7428 N   0  0  0  0  0  0  0  0  0  0  0  0
    8.7143    2.4335  -16.1051 C   0  0  0  0  0  0  0  0  0  0  0  0
    6.5970    0.5104  -16.1521 H   0  0  0  0  0  0  0  0  0  0  0  0
    5.7605    1.8392  -17.0166 H   0  0  0  0  0  0  0  0  0  0  0  0
    7.4976    1.9393  -14.0345 C   0  0  0  0  0  0  0  0  0  0  0  0
    6.5483    2.8785  -13.6261 C   0  0  0  0  0  0  0  0  0  0  0  0
    5.4373    2.4242  -12.9389 C   0  0  0  0  0  0  0  0  0  0  0  0
    5.2855    1.0656  -12.6705 C   0  0  0  0  0  0  0  0  0  0  0  0
    6.2388    0.1396  -13.0828 C   0  0  0  0  0  0  0  0  0  0  0  0
    7.3405    0.6043  -13.7662 C   0  0  0  0  0  0  0  0  0  0  0  0
    8.2775   -0.2855  -14.1747 F   0  0  0  0  0  0  0  0  0  0  0  0
   11.8591    4.0315  -15.2961 C   0  0  0  0  0  0  0  0  0  0  0  0
   12.3923    4.2883  -14.2035 O   0  0  0  0  0  0  0  0  0  0  0  0
   12.4693    4.3431  -16.5412 N   0  0  0  0  0  0  0  0  0  0  0  0
   11.9231    4.0789  -17.4157 H   0  0  0  0  0  0  0  0  0  0  0  0
   13.7626    4.9846  -16.6630 C   0  0  0  0  0  0  0  0  0  0  0  0
   13.6833    6.4525  -16.7760 C   0  0  0  0  0  0  0  0  0  0  0  0
   13.0458    7.3481  -15.9314 C   0  0  0  0  0  0  0  0  0  0  0  0
   13.2757    8.5875  -16.4863 C   0  0  0  0  0  0  0  0  0  0  0  0
   14.0191    8.4104  -17.6101 C   0  0  0  0  0  0  0  0  0  0  0  0
   14.2335    7.1380  -17.7387 O   0  0  0  0  0  0  0  0  0  0  0  0
  1  2  1  0  0  0
  2  3  2  0  0  0
  3  4  1  0  0  0
  4  5  2  0  0  0
  5  6  1  0  0  0
  6  7  1  0  0  0
  7 20  1  0  0  0
 20 21  2  0  0  0
 20 22  1  0  0  0
 22 24  1  0  0  0
 24 25  1  0  0  0
 25 26  2  0  0  0
 26 27  1  0  0  0
 27 28  2  0  0  0
 28 29  1  0  0  0
  7  8  2  0  0  0
  8  9  1  0  0  0
  9 13  1  0  0  0
 13 14  2  0  0  0
 14 15  1  0  0  0
 15 16  2  0  0  0
 16 17  1  0  0  0
 17 18  2  0  0  0
 18 19  1  0  0  0
  9 10  1  0  0  0
 10  2  1  0  0  0
 10  6  2  0  0  0
 29 25  1  0  0  0
 18 13  1  0  0  0
  1 11  1  0  0  0
  1 12  1  0  0  0
 22 23  1  0  0  0
M  END
> <minimizedAffinity>
-7.38554

$$$$
